LAMMPS (2 Aug 2023)
###%****************************************************************************%
####%                                                                          *%
####%    Script for Step 1: LJ crystal in contact with vacuum                  *%
####%                             with Broughton-Gilmer potential              *%
####%                                                                          *%
####%***************************************************************************%
####%                                                                          *%
####%    Created by:                                                           *%
####%    Nicodemo Di Pasquale                                                  *%
####%    Department of Mathematics                                             *%
####%    University of Leicester                                               *%
####%    March 2018                                                            *%
####%                                                                          *%
####%***************************************************************************%

units		lj
atom_style	atomic

boundary p p p
read_data fcc111-T01.lmp
Reading data file ...
  orthogonal box = (0 0 0) to (5.5112433 5.7274521 16.199681)
  reading atoms ...
  540 atoms
  reading velocities ...
  540 velocities

mass * 1.0

# ---------------------------- Define variables --------------------------------

variable   wellsfile   string "fcc111-T01-wells.lmp" # Name of the wells file

variable   backloop    equal  0         # perform the backloop yes/no: 1/0
variable   rhoc        equal  1.05604   # density at which calculate the size of the unit cell
variable   fact        equal  1.2       # factor controlling extension wells interactopm
variable   dw          equal  6.0       # depth of the wells, taken as the pe per atom in liquid at triple point
variable   expp        equal  3.0       # power law exponent in wells potential shape
variable   eqnts       equal  0      # equilibration number of time-steps
variable   nts         equal  1000     # production number of time-steps
variable   ts          equal  0.005     # time-step size (in lj units)
variable   siglj       equal  1.0       # sigma coefficient for BG pair-style
variable   epslj       equal  1.0       # epsilon coefficient for BG pair-style
variable   cut1        equal  2.3       # internal cut-off for BG pair-style
variable   cut2        equal  2.5       # external cut-off for BG pair-style
variable   Tsyst       equal  0.1       # (reduced) temperature of the system
variable   NtsTdamp    equal  100       # Number of ts to damp temperature
variable   Nevery      equal  2       # use input values every this many time steps
variable   Nrepeat     equal  500         # # of times to use input values for calculating averages
variable   Nfreq       equal  1000       # calculate averages every this many time steps
variable   thermoSteps equal  1000      # # of time-steps before printing properties on screen

# ----- Derivate variables ------

variable  Tdamp    equal  100*0.005
variable  a0       equal  exp(1/3*ln(4/1.05604))
variable  rrw      equal  sqrt(2)*1.55881008771231/4.0
variable  rw       equal  0.551122591801686*1.2
variable  cutoff1  equal  1*2.3
variable  cutoff2  equal  1*2.5

# ----------------------------- Interactions -----------------------------------

pair_style lj/BG 2.3 2.5
pair_coeff   * *  1 1

neighbor     0.3 bin
neigh_modify every 1 delay 0 check yes
atom_modify  sort 0 0.0

# ------------------------- fix atoms  -------------------------------

velocity all zero linear
velocity all zero angular

# ------------- Output thermo information and averaged variables ---------------

thermo    1000
timestep  0.005

# --------------- Dumping trajectories and store restart file ------------------

#dump        Dp1 all xyz 20000 dump/dump.*.xyz
#restart   30000 X.restart/X.restart

# -------------------------- Zero linear momentum ------------------------------

fix    f3  all  momentum 1 linear 1 1 1

# -----------------------   Set sim   ----------------------------

fix f4 all  nvt temp 0.1 0.1 0.5

# ----------------------- increasing interactions wells ------------------------

variable dir string "F"
variable   lam file lambda_wells.dat      # file with lambda in [0,1]
variable   i           equal  1           # initialization counter
variable   lambda      equal  0

write_data fcc111.data nocoeff
System init for write_data ...
Generated 0 of 1 mixed pair_coeff terms from geometric mixing rule

label here
include    in.loop/loop
#*******************************************************************************#
#                                Wells loop                                     #
#*******************************************************************************#
#%       Created by:                                                           *%
#%            Nicodemo Di Pasquale                                             *%
#%            Department of Mathematics                                        *%
#%            University of Leicester                                          *%
#%            March 2018                                                       *%
#%******************************************************************************%

variable    lambda equal 0

fix f2 all wellPforce 6 0.661347110162023 3 0 file fcc111-T01-wells.lmp

Well depth 0
run   0
Generated 0 of 1 mixed pair_coeff terms from geometric mixing rule
Step          Temp          E_pair         E_mol          TotEng         Press
0   0.099924464   -7.4462657      0             -7.2966565     -0.85634027
Loop time of 1.36475e-06 on 4 procs for 0 steps with 540 atoms

fix  f5 all ave/time 2 500 1000  c_thermo_temp c_thermo_pe f_f2 v_lambda file  out/ave.F.1.out

run  1000
Generated 0 of 1 mixed pair_coeff terms from geometric mixing rule
Step          Temp          E_pair         E_mol          TotEng         Press
0   0.099924464   -7.4462657      0             -7.2966565     -0.85634027
Loop time of 0.0921435 on 4 procs for 1000 steps with 540 atoms

# --------------------------- Unfix --------------------------------------------

unfix f5
unfix f2

#%*****************************************************************************%
variable    ii   equal 1+1
variable    i    equal 2
next lam
jump SELF here
include    in.loop/loop
#*******************************************************************************#
#                                Wells loop                                     #
#*******************************************************************************#
#%       Created by:                                                           *%
#%            Nicodemo Di Pasquale                                             *%
#%            Department of Mathematics                                        *%
#%            University of Leicester                                          *%
#%            March 2018                                                       *%
#%******************************************************************************%

variable    lambda equal 0.02

fix f2 all wellPforce 6 0.661347110162023 3 0.02 file fcc111-T01-wells.lmp

Well depth 0.02
run   0
Generated 0 of 1 mixed pair_coeff terms from geometric mixing rule
Step          Temp          E_pair         E_mol          TotEng         Press
1000   0.097990609   -7.3106344      0             -7.1639207     -0.068592292
Loop time of 1.12475e-06 on 4 procs for 0 steps with 540 atoms

fix  f5 all ave/time 2 500 1000  c_thermo_temp c_thermo_pe f_f2 v_lambda file  out/ave.F.2.out

run  1000
Generated 0 of 1 mixed pair_coeff terms from geometric mixing rule
Step          Temp          E_pair         E_mol          TotEng         Press
1000   0.097990609   -7.3106344      0             -7.1639207     -0.068592292
Loop time of 0.0930628 on 4 procs for 1000 steps with 540 atoms

# --------------------------- Unfix --------------------------------------------

unfix f5
unfix f2

#%*****************************************************************************%
variable    ii   equal 2+1
variable    i    equal 3
next lam
jump SELF here
include    in.loop/loop
#*******************************************************************************#
#                                Wells loop                                     #
#*******************************************************************************#
#%       Created by:                                                           *%
#%            Nicodemo Di Pasquale                                             *%
#%            Department of Mathematics                                        *%
#%            University of Leicester                                          *%
#%            March 2018                                                       *%
#%******************************************************************************%

variable    lambda equal 0.04

fix f2 all wellPforce 6 0.661347110162023 3 0.04 file fcc111-T01-wells.lmp

Well depth 0.04
run   0
Generated 0 of 1 mixed pair_coeff terms from geometric mixing rule
Step          Temp          E_pair         E_mol          TotEng         Press
2000   0.10243132    -7.2952126      0             -7.1418502      0.025144224
Loop time of 1.19825e-06 on 4 procs for 0 steps with 540 atoms

fix  f5 all ave/time 2 500 1000  c_thermo_temp c_thermo_pe f_f2 v_lambda file  out/ave.F.3.out

run  1000
Generated 0 of 1 mixed pair_coeff terms from geometric mixing rule
Step          Temp          E_pair         E_mol          TotEng         Press
2000   0.10243132    -7.2952126      0             -7.1418502      0.025144224
Loop time of 0.0921611 on 4 procs for 1000 steps with 540 atoms

# --------------------------- Unfix --------------------------------------------

unfix f5
unfix f2

#%*****************************************************************************%
variable    ii   equal 3+1
variable    i    equal 4
next lam
jump SELF here
include    in.loop/loop
#*******************************************************************************#
#                                Wells loop                                     #
#*******************************************************************************#
#%       Created by:                                                           *%
#%            Nicodemo Di Pasquale                                             *%
#%            Department of Mathematics                                        *%
#%            University of Leicester                                          *%
#%            March 2018                                                       *%
#%******************************************************************************%

variable    lambda equal 0.06

fix f2 all wellPforce 6 0.661347110162023 3 0.06 file fcc111-T01-wells.lmp

Well depth 0.06
run   0
Generated 0 of 1 mixed pair_coeff terms from geometric mixing rule
Step          Temp          E_pair         E_mol          TotEng         Press
3000   0.096445686   -7.2945225      0             -7.1501219      0.020404785
Loop time of 1.146e-06 on 4 procs for 0 steps with 540 atoms

fix  f5 all ave/time 2 500 1000  c_thermo_temp c_thermo_pe f_f2 v_lambda file  out/ave.F.4.out

run  1000
Generated 0 of 1 mixed pair_coeff terms from geometric mixing rule
Step          Temp          E_pair         E_mol          TotEng         Press
3000   0.096445686   -7.2945225      0             -7.1501219      0.020404785
Loop time of 0.0944982 on 4 procs for 1000 steps with 540 atoms

# --------------------------- Unfix --------------------------------------------

unfix f5
unfix f2

#%*****************************************************************************%
variable    ii   equal 4+1
variable    i    equal 5
next lam
jump SELF here
include    in.loop/loop
#*******************************************************************************#
#                                Wells loop                                     #
#*******************************************************************************#
#%       Created by:                                                           *%
#%            Nicodemo Di Pasquale                                             *%
#%            Department of Mathematics                                        *%
#%            University of Leicester                                          *%
#%            March 2018                                                       *%
#%******************************************************************************%

variable    lambda equal 0.08

fix f2 all wellPforce 6 0.661347110162023 3 0.08 file fcc111-T01-wells.lmp

Well depth 0.08
run   0
Generated 0 of 1 mixed pair_coeff terms from geometric mixing rule
Step          Temp          E_pair         E_mol          TotEng         Press
4000   0.099092905   -7.3020053      0             -7.1536412     -0.016013511
Loop time of 8.9575e-07 on 4 procs for 0 steps with 540 atoms

fix  f5 all ave/time 2 500 1000  c_thermo_temp c_thermo_pe f_f2 v_lambda file  out/ave.F.5.out

run  1000
Generated 0 of 1 mixed pair_coeff terms from geometric mixing rule
Step          Temp          E_pair         E_mol          TotEng         Press
4000   0.099092905   -7.3020053      0             -7.1536412     -0.016013511
Loop time of 0.0908175 on 4 procs for 1000 steps with 540 atoms

# --------------------------- Unfix --------------------------------------------

unfix f5
unfix f2

#%*****************************************************************************%
variable    ii   equal 5+1
variable    i    equal 6
next lam
jump SELF here
include    in.loop/loop
#*******************************************************************************#
#                                Wells loop                                     #
#*******************************************************************************#
#%       Created by:                                                           *%
#%            Nicodemo Di Pasquale                                             *%
#%            Department of Mathematics                                        *%
#%            University of Leicester                                          *%
#%            March 2018                                                       *%
#%******************************************************************************%

variable    lambda equal 0.1

fix f2 all wellPforce 6 0.661347110162023 3 0.1 file fcc111-T01-wells.lmp

Well depth 0.1
run   0
Generated 0 of 1 mixed pair_coeff terms from geometric mixing rule
Step          Temp          E_pair         E_mol          TotEng         Press
5000   0.096071456   -7.2995549      0             -7.1557146     -0.0079176706
Loop time of 9.3725e-07 on 4 procs for 0 steps with 540 atoms

fix  f5 all ave/time 2 500 1000  c_thermo_temp c_thermo_pe f_f2 v_lambda file  out/ave.F.6.out

run  1000
Generated 0 of 1 mixed pair_coeff terms from geometric mixing rule
Step          Temp          E_pair         E_mol          TotEng         Press
5000   0.096071456   -7.2995549      0             -7.1557146     -0.0079176706
Loop time of 0.0899346 on 4 procs for 1000 steps with 540 atoms

# --------------------------- Unfix --------------------------------------------

unfix f5
unfix f2

#%*****************************************************************************%
variable    ii   equal 6+1
variable    i    equal 7
next lam
jump SELF here
include    in.loop/loop
#*******************************************************************************#
#                                Wells loop                                     #
#*******************************************************************************#
#%       Created by:                                                           *%
#%            Nicodemo Di Pasquale                                             *%
#%            Department of Mathematics                                        *%
#%            University of Leicester                                          *%
#%            March 2018                                                       *%
#%******************************************************************************%

variable    lambda equal 0.12

fix f2 all wellPforce 6 0.661347110162023 3 0.12 file fcc111-T01-wells.lmp

Well depth 0.12
run   0
Generated 0 of 1 mixed pair_coeff terms from geometric mixing rule
Step          Temp          E_pair         E_mol          TotEng         Press
6000   0.099952747   -7.2985752      0             -7.1489237      0.0024720175
Loop time of 9.5825e-07 on 4 procs for 0 steps with 540 atoms

fix  f5 all ave/time 2 500 1000  c_thermo_temp c_thermo_pe f_f2 v_lambda file  out/ave.F.7.out

run  1000
Generated 0 of 1 mixed pair_coeff terms from geometric mixing rule
Step          Temp          E_pair         E_mol          TotEng         Press
6000   0.099952747   -7.2985752      0             -7.1489237      0.0024720175
Loop time of 0.0909241 on 4 procs for 1000 steps with 540 atoms

# --------------------------- Unfix --------------------------------------------

unfix f5
unfix f2

#%*****************************************************************************%
variable    ii   equal 7+1
variable    i    equal 8
next lam
jump SELF here
include    in.loop/loop
#*******************************************************************************#
#                                Wells loop                                     #
#*******************************************************************************#
#%       Created by:                                                           *%
#%            Nicodemo Di Pasquale                                             *%
#%            Department of Mathematics                                        *%
#%            University of Leicester                                          *%
#%            March 2018                                                       *%
#%******************************************************************************%

variable    lambda equal 0.14

fix f2 all wellPforce 6 0.661347110162023 3 0.14 file fcc111-T01-wells.lmp

Well depth 0.14
run   0
Generated 0 of 1 mixed pair_coeff terms from geometric mixing rule
Step          Temp          E_pair         E_mol          TotEng         Press
7000   0.097879334   -7.2866969      0             -7.1401498      0.068302287
Loop time of 1.07275e-06 on 4 procs for 0 steps with 540 atoms

fix  f5 all ave/time 2 500 1000  c_thermo_temp c_thermo_pe f_f2 v_lambda file  out/ave.F.8.out

run  1000
Generated 0 of 1 mixed pair_coeff terms from geometric mixing rule
Step          Temp          E_pair         E_mol          TotEng         Press
7000   0.097879334   -7.2866969      0             -7.1401498      0.068302287
Loop time of 0.0929322 on 4 procs for 1000 steps with 540 atoms

# --------------------------- Unfix --------------------------------------------

unfix f5
unfix f2

#%*****************************************************************************%
variable    ii   equal 8+1
variable    i    equal 9
next lam
jump SELF here
include    in.loop/loop
#*******************************************************************************#
#                                Wells loop                                     #
#*******************************************************************************#
#%       Created by:                                                           *%
#%            Nicodemo Di Pasquale                                             *%
#%            Department of Mathematics                                        *%
#%            University of Leicester                                          *%
#%            March 2018                                                       *%
#%******************************************************************************%

variable    lambda equal 0.16

fix f2 all wellPforce 6 0.661347110162023 3 0.16 file fcc111-T01-wells.lmp

Well depth 0.16
run   0
Generated 0 of 1 mixed pair_coeff terms from geometric mixing rule
Step          Temp          E_pair         E_mol          TotEng         Press
8000   0.098100646   -7.2956633      0             -7.1487849      0.015843409
Loop time of 9.065e-07 on 4 procs for 0 steps with 540 atoms

fix  f5 all ave/time 2 500 1000  c_thermo_temp c_thermo_pe f_f2 v_lambda file  out/ave.F.9.out

run  1000
Generated 0 of 1 mixed pair_coeff terms from geometric mixing rule
Step          Temp          E_pair         E_mol          TotEng         Press
8000   0.098100646   -7.2956633      0             -7.1487849      0.015843409
Loop time of 0.0898205 on 4 procs for 1000 steps with 540 atoms

# --------------------------- Unfix --------------------------------------------

unfix f5
unfix f2

#%*****************************************************************************%
variable    ii   equal 9+1
variable    i    equal 10
next lam
jump SELF here
include    in.loop/loop
#*******************************************************************************#
#                                Wells loop                                     #
#*******************************************************************************#
#%       Created by:                                                           *%
#%            Nicodemo Di Pasquale                                             *%
#%            Department of Mathematics                                        *%
#%            University of Leicester                                          *%
#%            March 2018                                                       *%
#%******************************************************************************%

variable    lambda equal 0.18

fix f2 all wellPforce 6 0.661347110162023 3 0.18 file fcc111-T01-wells.lmp

Well depth 0.18
run   0
Generated 0 of 1 mixed pair_coeff terms from geometric mixing rule
Step          Temp          E_pair         E_mol          TotEng         Press
9000   0.10277011    -7.3024294      0             -7.1485597     -0.018026178
Loop time of 1.06275e-06 on 4 procs for 0 steps with 540 atoms

fix  f5 all ave/time 2 500 1000  c_thermo_temp c_thermo_pe f_f2 v_lambda file  out/ave.F.10.out

run  1000
Generated 0 of 1 mixed pair_coeff terms from geometric mixing rule
Step          Temp          E_pair         E_mol          TotEng         Press
9000   0.10277011    -7.3024294      0             -7.1485597     -0.018026178
Loop time of 0.0910302 on 4 procs for 1000 steps with 540 atoms

# --------------------------- Unfix --------------------------------------------

unfix f5
unfix f2

#%*****************************************************************************%
variable    ii   equal 10+1
variable    i    equal 11
next lam
jump SELF here
include    in.loop/loop
#*******************************************************************************#
#                                Wells loop                                     #
#*******************************************************************************#
#%       Created by:                                                           *%
#%            Nicodemo Di Pasquale                                             *%
#%            Department of Mathematics                                        *%
#%            University of Leicester                                          *%
#%            March 2018                                                       *%
#%******************************************************************************%

variable    lambda equal 0.2

fix f2 all wellPforce 6 0.661347110162023 3 0.2 file fcc111-T01-wells.lmp

Well depth 0.2
run   0
Generated 0 of 1 mixed pair_coeff terms from geometric mixing rule
Step          Temp          E_pair         E_mol          TotEng         Press
10000   0.099005515   -7.2982833      0             -7.1500501      0.00050140912
Loop time of 1.06225e-06 on 4 procs for 0 steps with 540 atoms

fix  f5 all ave/time 2 500 1000  c_thermo_temp c_thermo_pe f_f2 v_lambda file  out/ave.F.11.out

run  1000
Generated 0 of 1 mixed pair_coeff terms from geometric mixing rule
Step          Temp          E_pair         E_mol          TotEng         Press
10000   0.099005515   -7.2982833      0             -7.1500501      0.00050140912
Loop time of 0.091809 on 4 procs for 1000 steps with 540 atoms

# --------------------------- Unfix --------------------------------------------

unfix f5
unfix f2

#%*****************************************************************************%
variable    ii   equal 11+1
variable    i    equal 12
next lam
jump SELF here
include    in.loop/loop
#*******************************************************************************#
#                                Wells loop                                     #
#*******************************************************************************#
#%       Created by:                                                           *%
#%            Nicodemo Di Pasquale                                             *%
#%            Department of Mathematics                                        *%
#%            University of Leicester                                          *%
#%            March 2018                                                       *%
#%******************************************************************************%

variable    lambda equal 0.22

fix f2 all wellPforce 6 0.661347110162023 3 0.22 file fcc111-T01-wells.lmp

Well depth 0.22
run   0
Generated 0 of 1 mixed pair_coeff terms from geometric mixing rule
Step          Temp          E_pair         E_mol          TotEng         Press
11000   0.10365975    -7.3065546      0             -7.1513529     -0.040785905
Loop time of 1.16675e-06 on 4 procs for 0 steps with 540 atoms

fix  f5 all ave/time 2 500 1000  c_thermo_temp c_thermo_pe f_f2 v_lambda file  out/ave.F.12.out

run  1000
Generated 0 of 1 mixed pair_coeff terms from geometric mixing rule
Step          Temp          E_pair         E_mol          TotEng         Press
11000   0.10365975    -7.3065546      0             -7.1513529     -0.040785905
Loop time of 0.0940055 on 4 procs for 1000 steps with 540 atoms

# --------------------------- Unfix --------------------------------------------

unfix f5
unfix f2

#%*****************************************************************************%
variable    ii   equal 12+1
variable    i    equal 13
next lam
jump SELF here
include    in.loop/loop
#*******************************************************************************#
#                                Wells loop                                     #
#*******************************************************************************#
#%       Created by:                                                           *%
#%            Nicodemo Di Pasquale                                             *%
#%            Department of Mathematics                                        *%
#%            University of Leicester                                          *%
#%            March 2018                                                       *%
#%******************************************************************************%

variable    lambda equal 0.24

fix f2 all wellPforce 6 0.661347110162023 3 0.24 file fcc111-T01-wells.lmp

Well depth 0.24
run   0
Generated 0 of 1 mixed pair_coeff terms from geometric mixing rule
Step          Temp          E_pair         E_mol          TotEng         Press
12000   0.099007215   -7.2933301      0             -7.1450943      0.029612284
Loop time of 1.20825e-06 on 4 procs for 0 steps with 540 atoms

fix  f5 all ave/time 2 500 1000  c_thermo_temp c_thermo_pe f_f2 v_lambda file  out/ave.F.13.out

run  1000
Generated 0 of 1 mixed pair_coeff terms from geometric mixing rule
Step          Temp          E_pair         E_mol          TotEng         Press
12000   0.099007215   -7.2933301      0             -7.1450943      0.029612284
Loop time of 0.0965208 on 4 procs for 1000 steps with 540 atoms

# --------------------------- Unfix --------------------------------------------

unfix f5
unfix f2

#%*****************************************************************************%
variable    ii   equal 13+1
variable    i    equal 14
next lam
jump SELF here
include    in.loop/loop
#*******************************************************************************#
#                                Wells loop                                     #
#*******************************************************************************#
#%       Created by:                                                           *%
#%            Nicodemo Di Pasquale                                             *%
#%            Department of Mathematics                                        *%
#%            University of Leicester                                          *%
#%            March 2018                                                       *%
#%******************************************************************************%

variable    lambda equal 0.26

fix f2 all wellPforce 6 0.661347110162023 3 0.26 file fcc111-T01-wells.lmp

Well depth 0.26
run   0
Generated 0 of 1 mixed pair_coeff terms from geometric mixing rule
Step          Temp          E_pair         E_mol          TotEng         Press
13000   0.10122765    -7.2974667      0             -7.1459064      0.010720711
Loop time of 1.2395e-06 on 4 procs for 0 steps with 540 atoms

fix  f5 all ave/time 2 500 1000  c_thermo_temp c_thermo_pe f_f2 v_lambda file  out/ave.F.14.out

run  1000
Generated 0 of 1 mixed pair_coeff terms from geometric mixing rule
Step          Temp          E_pair         E_mol          TotEng         Press
13000   0.10122765    -7.2974667      0             -7.1459064      0.010720711
Loop time of 0.0936274 on 4 procs for 1000 steps with 540 atoms

# --------------------------- Unfix --------------------------------------------

unfix f5
unfix f2

#%*****************************************************************************%
variable    ii   equal 14+1
variable    i    equal 15
next lam
jump SELF here
include    in.loop/loop
#*******************************************************************************#
#                                Wells loop                                     #
#*******************************************************************************#
#%       Created by:                                                           *%
#%            Nicodemo Di Pasquale                                             *%
#%            Department of Mathematics                                        *%
#%            University of Leicester                                          *%
#%            March 2018                                                       *%
#%******************************************************************************%

variable    lambda equal 0.28

fix f2 all wellPforce 6 0.661347110162023 3 0.28 file fcc111-T01-wells.lmp

Well depth 0.28
run   0
Generated 0 of 1 mixed pair_coeff terms from geometric mixing rule
Step          Temp          E_pair         E_mol          TotEng         Press
14000   0.098257928   -7.2953398      0             -7.1482258      0.019081933
Loop time of 1.07275e-06 on 4 procs for 0 steps with 540 atoms

fix  f5 all ave/time 2 500 1000  c_thermo_temp c_thermo_pe f_f2 v_lambda file  out/ave.F.15.out

run  1000
Generated 0 of 1 mixed pair_coeff terms from geometric mixing rule
Step          Temp          E_pair         E_mol          TotEng         Press
14000   0.098257928   -7.2953398      0             -7.1482258      0.019081933
Loop time of 0.0966459 on 4 procs for 1000 steps with 540 atoms

# --------------------------- Unfix --------------------------------------------

unfix f5
unfix f2

#%*****************************************************************************%
variable    ii   equal 15+1
variable    i    equal 16
next lam
jump SELF here
include    in.loop/loop
#*******************************************************************************#
#                                Wells loop                                     #
#*******************************************************************************#
#%       Created by:                                                           *%
#%            Nicodemo Di Pasquale                                             *%
#%            Department of Mathematics                                        *%
#%            University of Leicester                                          *%
#%            March 2018                                                       *%
#%******************************************************************************%

variable    lambda equal 0.3

fix f2 all wellPforce 6 0.661347110162023 3 0.3 file fcc111-T01-wells.lmp

Well depth 0.3
run   0
Generated 0 of 1 mixed pair_coeff terms from geometric mixing rule
Step          Temp          E_pair         E_mol          TotEng         Press
15000   0.10148197    -7.2979103      0             -7.1459693      0.0047792043
Loop time of 1.18775e-06 on 4 procs for 0 steps with 540 atoms

fix  f5 all ave/time 2 500 1000  c_thermo_temp c_thermo_pe f_f2 v_lambda file  out/ave.F.16.out

run  1000
Generated 0 of 1 mixed pair_coeff terms from geometric mixing rule
Step          Temp          E_pair         E_mol          TotEng         Press
15000   0.10148197    -7.2979103      0             -7.1459693      0.0047792043
Loop time of 0.0920983 on 4 procs for 1000 steps with 540 atoms

# --------------------------- Unfix --------------------------------------------

unfix f5
unfix f2

#%*****************************************************************************%
variable    ii   equal 16+1
variable    i    equal 17
next lam
jump SELF here
include    in.loop/loop
#*******************************************************************************#
#                                Wells loop                                     #
#*******************************************************************************#
#%       Created by:                                                           *%
#%            Nicodemo Di Pasquale                                             *%
#%            Department of Mathematics                                        *%
#%            University of Leicester                                          *%
#%            March 2018                                                       *%
#%******************************************************************************%

variable    lambda equal 0.32

fix f2 all wellPforce 6 0.661347110162023 3 0.32 file fcc111-T01-wells.lmp

Well depth 0.32
run   0
Generated 0 of 1 mixed pair_coeff terms from geometric mixing rule
Step          Temp          E_pair         E_mol          TotEng         Press
16000   0.098193793   -7.2989867      0             -7.1519688     -0.0025393528
Loop time of 1.021e-06 on 4 procs for 0 steps with 540 atoms

fix  f5 all ave/time 2 500 1000  c_thermo_temp c_thermo_pe f_f2 v_lambda file  out/ave.F.17.out

run  1000
Generated 0 of 1 mixed pair_coeff terms from geometric mixing rule
Step          Temp          E_pair         E_mol          TotEng         Press
16000   0.098193793   -7.2989867      0             -7.1519688     -0.0025393528
Loop time of 0.0939537 on 4 procs for 1000 steps with 540 atoms

# --------------------------- Unfix --------------------------------------------

unfix f5
unfix f2

#%*****************************************************************************%
variable    ii   equal 17+1
variable    i    equal 18
next lam
jump SELF here
include    in.loop/loop
#*******************************************************************************#
#                                Wells loop                                     #
#*******************************************************************************#
#%       Created by:                                                           *%
#%            Nicodemo Di Pasquale                                             *%
#%            Department of Mathematics                                        *%
#%            University of Leicester                                          *%
#%            March 2018                                                       *%
#%******************************************************************************%

variable    lambda equal 0.34

fix f2 all wellPforce 6 0.661347110162023 3 0.34 file fcc111-T01-wells.lmp

Well depth 0.34
run   0
Generated 0 of 1 mixed pair_coeff terms from geometric mixing rule
Step          Temp          E_pair         E_mol          TotEng         Press
17000   0.10011584    -7.2930289      0             -7.1431332      0.031810373
Loop time of 1.02075e-06 on 4 procs for 0 steps with 540 atoms

fix  f5 all ave/time 2 500 1000  c_thermo_temp c_thermo_pe f_f2 v_lambda file  out/ave.F.18.out

run  1000
Generated 0 of 1 mixed pair_coeff terms from geometric mixing rule
Step          Temp          E_pair         E_mol          TotEng         Press
17000   0.10011584    -7.2930289      0             -7.1431332      0.031810373
Loop time of 0.0949111 on 4 procs for 1000 steps with 540 atoms

# --------------------------- Unfix --------------------------------------------

unfix f5
unfix f2

#%*****************************************************************************%
variable    ii   equal 18+1
variable    i    equal 19
next lam
jump SELF here
include    in.loop/loop
#*******************************************************************************#
#                                Wells loop                                     #
#*******************************************************************************#
#%       Created by:                                                           *%
#%            Nicodemo Di Pasquale                                             *%
#%            Department of Mathematics                                        *%
#%            University of Leicester                                          *%
#%            March 2018                                                       *%
#%******************************************************************************%

variable    lambda equal 0.36

fix f2 all wellPforce 6 0.661347110162023 3 0.36 file fcc111-T01-wells.lmp

Well depth 0.36
run   0
Generated 0 of 1 mixed pair_coeff terms from geometric mixing rule
Step          Temp          E_pair         E_mol          TotEng         Press
18000   0.10134837    -7.2968502      0             -7.1451091      0.011678776
Loop time of 1.2395e-06 on 4 procs for 0 steps with 540 atoms

fix  f5 all ave/time 2 500 1000  c_thermo_temp c_thermo_pe f_f2 v_lambda file  out/ave.F.19.out

run  1000
Generated 0 of 1 mixed pair_coeff terms from geometric mixing rule
Step          Temp          E_pair         E_mol          TotEng         Press
18000   0.10134837    -7.2968502      0             -7.1451091      0.011678776
Loop time of 0.0928967 on 4 procs for 1000 steps with 540 atoms

# --------------------------- Unfix --------------------------------------------

unfix f5
unfix f2

#%*****************************************************************************%
variable    ii   equal 19+1
variable    i    equal 20
next lam
jump SELF here
include    in.loop/loop
#*******************************************************************************#
#                                Wells loop                                     #
#*******************************************************************************#
#%       Created by:                                                           *%
#%            Nicodemo Di Pasquale                                             *%
#%            Department of Mathematics                                        *%
#%            University of Leicester                                          *%
#%            March 2018                                                       *%
#%******************************************************************************%

variable    lambda equal 0.38

fix f2 all wellPforce 6 0.661347110162023 3 0.38 file fcc111-T01-wells.lmp

Well depth 0.38
run   0
Generated 0 of 1 mixed pair_coeff terms from geometric mixing rule
Step          Temp          E_pair         E_mol          TotEng         Press
19000   0.099783649   -7.3013682      0             -7.1519699     -0.016192837
Loop time of 1.2395e-06 on 4 procs for 0 steps with 540 atoms

fix  f5 all ave/time 2 500 1000  c_thermo_temp c_thermo_pe f_f2 v_lambda file  out/ave.F.20.out

run  1000
Generated 0 of 1 mixed pair_coeff terms from geometric mixing rule
Step          Temp          E_pair         E_mol          TotEng         Press
19000   0.099783649   -7.3013682      0             -7.1519699     -0.016192837
Loop time of 0.0941063 on 4 procs for 1000 steps with 540 atoms

# --------------------------- Unfix --------------------------------------------

unfix f5
unfix f2

#%*****************************************************************************%
variable    ii   equal 20+1
variable    i    equal 21
next lam
jump SELF here
include    in.loop/loop
#*******************************************************************************#
#                                Wells loop                                     #
#*******************************************************************************#
#%       Created by:                                                           *%
#%            Nicodemo Di Pasquale                                             *%
#%            Department of Mathematics                                        *%
#%            University of Leicester                                          *%
#%            March 2018                                                       *%
#%******************************************************************************%

variable    lambda equal 0.4

fix f2 all wellPforce 6 0.661347110162023 3 0.4 file fcc111-T01-wells.lmp

Well depth 0.4
run   0
Generated 0 of 1 mixed pair_coeff terms from geometric mixing rule
Loop time of 1.0105e-06 on 4 procs for 0 steps with 540 atoms

fix  f5 all ave/time 2 500 1000  c_thermo_temp c_thermo_pe f_f2 v_lambda file  out/ave.F.21.out

run  1000
Generated 0 of 1 mixed pair_coeff terms from geometric mixing rule
Loop time of 0.0945247 on 4 procs for 1000 steps with 540 atoms

# --------------------------- Unfix --------------------------------------------

unfix f5
unfix f2

#%*****************************************************************************%
variable    ii   equal 21+1
variable    i    equal 22
next lam
jump SELF here
include    in.loop/loop
#*******************************************************************************#
#                                Wells loop                                     #
#*******************************************************************************#
#%       Created by:                                                           *%
#%            Nicodemo Di Pasquale                                             *%
#%            Department of Mathematics                                        *%
#%            University of Leicester                                          *%
#%            March 2018                                                       *%
#%******************************************************************************%

variable    lambda equal 0.42

fix f2 all wellPforce 6 0.661347110162023 3 0.42 file fcc111-T01-wells.lmp

Well depth 0.42
run   0
Generated 0 of 1 mixed pair_coeff terms from geometric mixing rule
Loop time of 1.22925e-06 on 4 procs for 0 steps with 540 atoms

fix  f5 all ave/time 2 500 1000  c_thermo_temp c_thermo_pe f_f2 v_lambda file  out/ave.F.22.out

run  1000
Generated 0 of 1 mixed pair_coeff terms from geometric mixing rule
Loop time of 0.0938952 on 4 procs for 1000 steps with 540 atoms

# --------------------------- Unfix --------------------------------------------

unfix f5
unfix f2

#%*****************************************************************************%
variable    ii   equal 22+1
variable    i    equal 23
next lam
jump SELF here
include    in.loop/loop
#*******************************************************************************#
#                                Wells loop                                     #
#*******************************************************************************#
#%       Created by:                                                           *%
#%            Nicodemo Di Pasquale                                             *%
#%            Department of Mathematics                                        *%
#%            University of Leicester                                          *%
#%            March 2018                                                       *%
#%******************************************************************************%

variable    lambda equal 0.44

fix f2 all wellPforce 6 0.661347110162023 3 0.44 file fcc111-T01-wells.lmp

Well depth 0.44
run   0
Generated 0 of 1 mixed pair_coeff terms from geometric mixing rule
Loop time of 1.073e-06 on 4 procs for 0 steps with 540 atoms

fix  f5 all ave/time 2 500 1000  c_thermo_temp c_thermo_pe f_f2 v_lambda file  out/ave.F.23.out

run  1000
Generated 0 of 1 mixed pair_coeff terms from geometric mixing rule
Loop time of 0.0904353 on 4 procs for 1000 steps with 540 atoms

# --------------------------- Unfix --------------------------------------------

unfix f5
unfix f2

#%*****************************************************************************%
variable    ii   equal 23+1
variable    i    equal 24
next lam
jump SELF here
include    in.loop/loop
#*******************************************************************************#
#                                Wells loop                                     #
#*******************************************************************************#
#%       Created by:                                                           *%
#%            Nicodemo Di Pasquale                                             *%
#%            Department of Mathematics                                        *%
#%            University of Leicester                                          *%
#%            March 2018                                                       *%
#%******************************************************************************%

variable    lambda equal 0.46

fix f2 all wellPforce 6 0.661347110162023 3 0.46 file fcc111-T01-wells.lmp

Well depth 0.46
run   0
Generated 0 of 1 mixed pair_coeff terms from geometric mixing rule
Loop time of 1.3335e-06 on 4 procs for 0 steps with 540 atoms

fix  f5 all ave/time 2 500 1000  c_thermo_temp c_thermo_pe f_f2 v_lambda file  out/ave.F.24.out

run  1000
Generated 0 of 1 mixed pair_coeff terms from geometric mixing rule
Loop time of 0.0916635 on 4 procs for 1000 steps with 540 atoms

# --------------------------- Unfix --------------------------------------------

unfix f5
unfix f2

#%*****************************************************************************%
variable    ii   equal 24+1
variable    i    equal 25
next lam
jump SELF here
include    in.loop/loop
#*******************************************************************************#
#                                Wells loop                                     #
#*******************************************************************************#
#%       Created by:                                                           *%
#%            Nicodemo Di Pasquale                                             *%
#%            Department of Mathematics                                        *%
#%            University of Leicester                                          *%
#%            March 2018                                                       *%
#%******************************************************************************%

variable    lambda equal 0.48

fix f2 all wellPforce 6 0.661347110162023 3 0.48 file fcc111-T01-wells.lmp

Well depth 0.48
run   0
Generated 0 of 1 mixed pair_coeff terms from geometric mixing rule
Loop time of 9.6875e-07 on 4 procs for 0 steps with 540 atoms

fix  f5 all ave/time 2 500 1000  c_thermo_temp c_thermo_pe f_f2 v_lambda file  out/ave.F.25.out

run  1000
Generated 0 of 1 mixed pair_coeff terms from geometric mixing rule
Loop time of 0.0924353 on 4 procs for 1000 steps with 540 atoms

# --------------------------- Unfix --------------------------------------------

unfix f5
unfix f2

#%*****************************************************************************%
variable    ii   equal 25+1
variable    i    equal 26
next lam
jump SELF here
include    in.loop/loop
#*******************************************************************************#
#                                Wells loop                                     #
#*******************************************************************************#
#%       Created by:                                                           *%
#%            Nicodemo Di Pasquale                                             *%
#%            Department of Mathematics                                        *%
#%            University of Leicester                                          *%
#%            March 2018                                                       *%
#%******************************************************************************%

variable    lambda equal 0.5

fix f2 all wellPforce 6 0.661347110162023 3 0.5 file fcc111-T01-wells.lmp

Well depth 0.5
run   0
Generated 0 of 1 mixed pair_coeff terms from geometric mixing rule
Loop time of 1.30225e-06 on 4 procs for 0 steps with 540 atoms

fix  f5 all ave/time 2 500 1000  c_thermo_temp c_thermo_pe f_f2 v_lambda file  out/ave.F.26.out

run  1000
Generated 0 of 1 mixed pair_coeff terms from geometric mixing rule
Loop time of 0.0942767 on 4 procs for 1000 steps with 540 atoms

# --------------------------- Unfix --------------------------------------------

unfix f5
unfix f2

#%*****************************************************************************%
variable    ii   equal 26+1
variable    i    equal 27
next lam
jump SELF here
include    in.loop/loop
#*******************************************************************************#
#                                Wells loop                                     #
#*******************************************************************************#
#%       Created by:                                                           *%
#%            Nicodemo Di Pasquale                                             *%
#%            Department of Mathematics                                        *%
#%            University of Leicester                                          *%
#%            March 2018                                                       *%
#%******************************************************************************%

variable    lambda equal 0.52

fix f2 all wellPforce 6 0.661347110162023 3 0.52 file fcc111-T01-wells.lmp

Well depth 0.52
run   0
Generated 0 of 1 mixed pair_coeff terms from geometric mixing rule
Loop time of 1.12475e-06 on 4 procs for 0 steps with 540 atoms

fix  f5 all ave/time 2 500 1000  c_thermo_temp c_thermo_pe f_f2 v_lambda file  out/ave.F.27.out

run  1000
Generated 0 of 1 mixed pair_coeff terms from geometric mixing rule
Loop time of 0.0944223 on 4 procs for 1000 steps with 540 atoms

# --------------------------- Unfix --------------------------------------------

unfix f5
unfix f2

#%*****************************************************************************%
variable    ii   equal 27+1
variable    i    equal 28
next lam
jump SELF here
include    in.loop/loop
#*******************************************************************************#
#                                Wells loop                                     #
#*******************************************************************************#
#%       Created by:                                                           *%
#%            Nicodemo Di Pasquale                                             *%
#%            Department of Mathematics                                        *%
#%            University of Leicester                                          *%
#%            March 2018                                                       *%
#%******************************************************************************%

variable    lambda equal 0.54

fix f2 all wellPforce 6 0.661347110162023 3 0.54 file fcc111-T01-wells.lmp

Well depth 0.54
run   0
Generated 0 of 1 mixed pair_coeff terms from geometric mixing rule
Loop time of 1.1355e-06 on 4 procs for 0 steps with 540 atoms

fix  f5 all ave/time 2 500 1000  c_thermo_temp c_thermo_pe f_f2 v_lambda file  out/ave.F.28.out

run  1000
Generated 0 of 1 mixed pair_coeff terms from geometric mixing rule
Loop time of 0.0983534 on 4 procs for 1000 steps with 540 atoms

# --------------------------- Unfix --------------------------------------------

unfix f5
unfix f2

#%*****************************************************************************%
variable    ii   equal 28+1
variable    i    equal 29
next lam
jump SELF here
include    in.loop/loop
#*******************************************************************************#
#                                Wells loop                                     #
#*******************************************************************************#
#%       Created by:                                                           *%
#%            Nicodemo Di Pasquale                                             *%
#%            Department of Mathematics                                        *%
#%            University of Leicester                                          *%
#%            March 2018                                                       *%
#%******************************************************************************%

variable    lambda equal 0.56

fix f2 all wellPforce 6 0.661347110162023 3 0.56 file fcc111-T01-wells.lmp

Well depth 0.56
run   0
Generated 0 of 1 mixed pair_coeff terms from geometric mixing rule
Loop time of 1.02075e-06 on 4 procs for 0 steps with 540 atoms

fix  f5 all ave/time 2 500 1000  c_thermo_temp c_thermo_pe f_f2 v_lambda file  out/ave.F.29.out

run  1000
Generated 0 of 1 mixed pair_coeff terms from geometric mixing rule
Loop time of 0.0969389 on 4 procs for 1000 steps with 540 atoms

# --------------------------- Unfix --------------------------------------------

unfix f5
unfix f2

#%*****************************************************************************%
variable    ii   equal 29+1
variable    i    equal 30
next lam
jump SELF here
include    in.loop/loop
#*******************************************************************************#
#                                Wells loop                                     #
#*******************************************************************************#
#%       Created by:                                                           *%
#%            Nicodemo Di Pasquale                                             *%
#%            Department of Mathematics                                        *%
#%            University of Leicester                                          *%
#%            March 2018                                                       *%
#%******************************************************************************%

variable    lambda equal 0.58

fix f2 all wellPforce 6 0.661347110162023 3 0.58 file fcc111-T01-wells.lmp

Well depth 0.58
run   0
Generated 0 of 1 mixed pair_coeff terms from geometric mixing rule
Loop time of 1.2185e-06 on 4 procs for 0 steps with 540 atoms

fix  f5 all ave/time 2 500 1000  c_thermo_temp c_thermo_pe f_f2 v_lambda file  out/ave.F.30.out

run  1000
Generated 0 of 1 mixed pair_coeff terms from geometric mixing rule
Loop time of 0.0944766 on 4 procs for 1000 steps with 540 atoms

# --------------------------- Unfix --------------------------------------------

unfix f5
unfix f2

#%*****************************************************************************%
variable    ii   equal 30+1
variable    i    equal 31
next lam
jump SELF here
include    in.loop/loop
#*******************************************************************************#
#                                Wells loop                                     #
#*******************************************************************************#
#%       Created by:                                                           *%
#%            Nicodemo Di Pasquale                                             *%
#%            Department of Mathematics                                        *%
#%            University of Leicester                                          *%
#%            March 2018                                                       *%
#%******************************************************************************%

variable    lambda equal 0.6

fix f2 all wellPforce 6 0.661347110162023 3 0.6 file fcc111-T01-wells.lmp

Well depth 0.6
run   0
Generated 0 of 1 mixed pair_coeff terms from geometric mixing rule
Loop time of 9.4775e-07 on 4 procs for 0 steps with 540 atoms

fix  f5 all ave/time 2 500 1000  c_thermo_temp c_thermo_pe f_f2 v_lambda file  out/ave.F.31.out

run  1000
Generated 0 of 1 mixed pair_coeff terms from geometric mixing rule
Loop time of 0.0952122 on 4 procs for 1000 steps with 540 atoms

# --------------------------- Unfix --------------------------------------------

unfix f5
unfix f2

#%*****************************************************************************%
variable    ii   equal 31+1
variable    i    equal 32
next lam
jump SELF here
include    in.loop/loop
#*******************************************************************************#
#                                Wells loop                                     #
#*******************************************************************************#
#%       Created by:                                                           *%
#%            Nicodemo Di Pasquale                                             *%
#%            Department of Mathematics                                        *%
#%            University of Leicester                                          *%
#%            March 2018                                                       *%
#%******************************************************************************%

variable    lambda equal 0.62

fix f2 all wellPforce 6 0.661347110162023 3 0.62 file fcc111-T01-wells.lmp

Well depth 0.62
run   0
Generated 0 of 1 mixed pair_coeff terms from geometric mixing rule
Loop time of 3.8125e-06 on 4 procs for 0 steps with 540 atoms

fix  f5 all ave/time 2 500 1000  c_thermo_temp c_thermo_pe f_f2 v_lambda file  out/ave.F.32.out

run  1000
Generated 0 of 1 mixed pair_coeff terms from geometric mixing rule
Loop time of 0.0957486 on 4 procs for 1000 steps with 540 atoms

# --------------------------- Unfix --------------------------------------------

unfix f5
unfix f2

#%*****************************************************************************%
variable    ii   equal 32+1
variable    i    equal 33
next lam
jump SELF here
include    in.loop/loop
#*******************************************************************************#
#                                Wells loop                                     #
#*******************************************************************************#
#%       Created by:                                                           *%
#%            Nicodemo Di Pasquale                                             *%
#%            Department of Mathematics                                        *%
#%            University of Leicester                                          *%
#%            March 2018                                                       *%
#%******************************************************************************%

variable    lambda equal 0.64

fix f2 all wellPforce 6 0.661347110162023 3 0.64 file fcc111-T01-wells.lmp

Well depth 0.64
run   0
Generated 0 of 1 mixed pair_coeff terms from geometric mixing rule
Loop time of 1.0315e-06 on 4 procs for 0 steps with 540 atoms

fix  f5 all ave/time 2 500 1000  c_thermo_temp c_thermo_pe f_f2 v_lambda file  out/ave.F.33.out

run  1000
Generated 0 of 1 mixed pair_coeff terms from geometric mixing rule
Loop time of 0.0960773 on 4 procs for 1000 steps with 540 atoms

# --------------------------- Unfix --------------------------------------------

unfix f5
unfix f2

#%*****************************************************************************%
variable    ii   equal 33+1
variable    i    equal 34
next lam
jump SELF here
include    in.loop/loop
#*******************************************************************************#
#                                Wells loop                                     #
#*******************************************************************************#
#%       Created by:                                                           *%
#%            Nicodemo Di Pasquale                                             *%
#%            Department of Mathematics                                        *%
#%            University of Leicester                                          *%
#%            March 2018                                                       *%
#%******************************************************************************%

variable    lambda equal 0.66

fix f2 all wellPforce 6 0.661347110162023 3 0.66 file fcc111-T01-wells.lmp

Well depth 0.66
run   0
Generated 0 of 1 mixed pair_coeff terms from geometric mixing rule
Loop time of 1.052e-06 on 4 procs for 0 steps with 540 atoms

fix  f5 all ave/time 2 500 1000  c_thermo_temp c_thermo_pe f_f2 v_lambda file  out/ave.F.34.out

run  1000
Generated 0 of 1 mixed pair_coeff terms from geometric mixing rule
Loop time of 0.0959558 on 4 procs for 1000 steps with 540 atoms

# --------------------------- Unfix --------------------------------------------

unfix f5
unfix f2

#%*****************************************************************************%
variable    ii   equal 34+1
variable    i    equal 35
next lam
jump SELF here
include    in.loop/loop
#*******************************************************************************#
#                                Wells loop                                     #
#*******************************************************************************#
#%       Created by:                                                           *%
#%            Nicodemo Di Pasquale                                             *%
#%            Department of Mathematics                                        *%
#%            University of Leicester                                          *%
#%            March 2018                                                       *%
#%******************************************************************************%

variable    lambda equal 0.68

fix f2 all wellPforce 6 0.661347110162023 3 0.68 file fcc111-T01-wells.lmp

Well depth 0.68
run   0
Generated 0 of 1 mixed pair_coeff terms from geometric mixing rule
Loop time of 9.4775e-07 on 4 procs for 0 steps with 540 atoms

fix  f5 all ave/time 2 500 1000  c_thermo_temp c_thermo_pe f_f2 v_lambda file  out/ave.F.35.out

run  1000
Generated 0 of 1 mixed pair_coeff terms from geometric mixing rule
Loop time of 0.0959233 on 4 procs for 1000 steps with 540 atoms

# --------------------------- Unfix --------------------------------------------

unfix f5
unfix f2

#%*****************************************************************************%
variable    ii   equal 35+1
variable    i    equal 36
next lam
jump SELF here
include    in.loop/loop
#*******************************************************************************#
#                                Wells loop                                     #
#*******************************************************************************#
#%       Created by:                                                           *%
#%            Nicodemo Di Pasquale                                             *%
#%            Department of Mathematics                                        *%
#%            University of Leicester                                          *%
#%            March 2018                                                       *%
#%******************************************************************************%

variable    lambda equal 0.7

fix f2 all wellPforce 6 0.661347110162023 3 0.7 file fcc111-T01-wells.lmp

Well depth 0.7
run   0
Generated 0 of 1 mixed pair_coeff terms from geometric mixing rule
Loop time of 9.6875e-07 on 4 procs for 0 steps with 540 atoms

fix  f5 all ave/time 2 500 1000  c_thermo_temp c_thermo_pe f_f2 v_lambda file  out/ave.F.36.out

run  1000
Generated 0 of 1 mixed pair_coeff terms from geometric mixing rule
Loop time of 0.095078 on 4 procs for 1000 steps with 540 atoms

# --------------------------- Unfix --------------------------------------------

unfix f5
unfix f2

#%*****************************************************************************%
variable    ii   equal 36+1
variable    i    equal 37
next lam
jump SELF here
include    in.loop/loop
#*******************************************************************************#
#                                Wells loop                                     #
#*******************************************************************************#
#%       Created by:                                                           *%
#%            Nicodemo Di Pasquale                                             *%
#%            Department of Mathematics                                        *%
#%            University of Leicester                                          *%
#%            March 2018                                                       *%
#%******************************************************************************%

variable    lambda equal 0.72

fix f2 all wellPforce 6 0.661347110162023 3 0.72 file fcc111-T01-wells.lmp

Well depth 0.72
run   0
Generated 0 of 1 mixed pair_coeff terms from geometric mixing rule
Loop time of 1.45825e-06 on 4 procs for 0 steps with 540 atoms

fix  f5 all ave/time 2 500 1000  c_thermo_temp c_thermo_pe f_f2 v_lambda file  out/ave.F.37.out

run  1000
Generated 0 of 1 mixed pair_coeff terms from geometric mixing rule
Loop time of 0.0948645 on 4 procs for 1000 steps with 540 atoms

# --------------------------- Unfix --------------------------------------------

unfix f5
unfix f2

#%*****************************************************************************%
variable    ii   equal 37+1
variable    i    equal 38
next lam
jump SELF here
include    in.loop/loop
#*******************************************************************************#
#                                Wells loop                                     #
#*******************************************************************************#
#%       Created by:                                                           *%
#%            Nicodemo Di Pasquale                                             *%
#%            Department of Mathematics                                        *%
#%            University of Leicester                                          *%
#%            March 2018                                                       *%
#%******************************************************************************%

variable    lambda equal 0.74

fix f2 all wellPforce 6 0.661347110162023 3 0.74 file fcc111-T01-wells.lmp

Well depth 0.74
run   0
Generated 0 of 1 mixed pair_coeff terms from geometric mixing rule
Loop time of 1.104e-06 on 4 procs for 0 steps with 540 atoms

fix  f5 all ave/time 2 500 1000  c_thermo_temp c_thermo_pe f_f2 v_lambda file  out/ave.F.38.out

run  1000
Generated 0 of 1 mixed pair_coeff terms from geometric mixing rule
Loop time of 0.0949048 on 4 procs for 1000 steps with 540 atoms

# --------------------------- Unfix --------------------------------------------

unfix f5
unfix f2

#%*****************************************************************************%
variable    ii   equal 38+1
variable    i    equal 39
next lam
jump SELF here
include    in.loop/loop
#*******************************************************************************#
#                                Wells loop                                     #
#*******************************************************************************#
#%       Created by:                                                           *%
#%            Nicodemo Di Pasquale                                             *%
#%            Department of Mathematics                                        *%
#%            University of Leicester                                          *%
#%            March 2018                                                       *%
#%******************************************************************************%

variable    lambda equal 0.76

fix f2 all wellPforce 6 0.661347110162023 3 0.76 file fcc111-T01-wells.lmp

Well depth 0.76
run   0
Generated 0 of 1 mixed pair_coeff terms from geometric mixing rule
Loop time of 9.375e-07 on 4 procs for 0 steps with 540 atoms

fix  f5 all ave/time 2 500 1000  c_thermo_temp c_thermo_pe f_f2 v_lambda file  out/ave.F.39.out

run  1000
Generated 0 of 1 mixed pair_coeff terms from geometric mixing rule
Loop time of 0.0953024 on 4 procs for 1000 steps with 540 atoms

# --------------------------- Unfix --------------------------------------------

unfix f5
unfix f2

#%*****************************************************************************%
variable    ii   equal 39+1
variable    i    equal 40
next lam
jump SELF here
include    in.loop/loop
#*******************************************************************************#
#                                Wells loop                                     #
#*******************************************************************************#
#%       Created by:                                                           *%
#%            Nicodemo Di Pasquale                                             *%
#%            Department of Mathematics                                        *%
#%            University of Leicester                                          *%
#%            March 2018                                                       *%
#%******************************************************************************%

variable    lambda equal 0.78

fix f2 all wellPforce 6 0.661347110162023 3 0.78 file fcc111-T01-wells.lmp

Well depth 0.78
run   0
Generated 0 of 1 mixed pair_coeff terms from geometric mixing rule
Loop time of 1.21875e-06 on 4 procs for 0 steps with 540 atoms

fix  f5 all ave/time 2 500 1000  c_thermo_temp c_thermo_pe f_f2 v_lambda file  out/ave.F.40.out

run  1000
Generated 0 of 1 mixed pair_coeff terms from geometric mixing rule
Loop time of 0.0949551 on 4 procs for 1000 steps with 540 atoms

# --------------------------- Unfix --------------------------------------------

unfix f5
unfix f2

#%*****************************************************************************%
variable    ii   equal 40+1
variable    i    equal 41
next lam
jump SELF here
include    in.loop/loop
#*******************************************************************************#
#                                Wells loop                                     #
#*******************************************************************************#
#%       Created by:                                                           *%
#%            Nicodemo Di Pasquale                                             *%
#%            Department of Mathematics                                        *%
#%            University of Leicester                                          *%
#%            March 2018                                                       *%
#%******************************************************************************%

variable    lambda equal 0.8

fix f2 all wellPforce 6 0.661347110162023 3 0.8 file fcc111-T01-wells.lmp

Well depth 0.8
run   0
Generated 0 of 1 mixed pair_coeff terms from geometric mixing rule
Loop time of 9.6875e-07 on 4 procs for 0 steps with 540 atoms

fix  f5 all ave/time 2 500 1000  c_thermo_temp c_thermo_pe f_f2 v_lambda file  out/ave.F.41.out

run  1000
Generated 0 of 1 mixed pair_coeff terms from geometric mixing rule
Loop time of 0.0955144 on 4 procs for 1000 steps with 540 atoms

# --------------------------- Unfix --------------------------------------------

unfix f5
unfix f2

#%*****************************************************************************%
variable    ii   equal 41+1
variable    i    equal 42
next lam
jump SELF here
include    in.loop/loop
#*******************************************************************************#
#                                Wells loop                                     #
#*******************************************************************************#
#%       Created by:                                                           *%
#%            Nicodemo Di Pasquale                                             *%
#%            Department of Mathematics                                        *%
#%            University of Leicester                                          *%
#%            March 2018                                                       *%
#%******************************************************************************%

variable    lambda equal 0.82

fix f2 all wellPforce 6 0.661347110162023 3 0.82 file fcc111-T01-wells.lmp

Well depth 0.82
run   0
Generated 0 of 1 mixed pair_coeff terms from geometric mixing rule
Loop time of 9.6875e-07 on 4 procs for 0 steps with 540 atoms

fix  f5 all ave/time 2 500 1000  c_thermo_temp c_thermo_pe f_f2 v_lambda file  out/ave.F.42.out

run  1000
Generated 0 of 1 mixed pair_coeff terms from geometric mixing rule
Loop time of 0.0944574 on 4 procs for 1000 steps with 540 atoms

# --------------------------- Unfix --------------------------------------------

unfix f5
unfix f2

#%*****************************************************************************%
variable    ii   equal 42+1
variable    i    equal 43
next lam
jump SELF here
include    in.loop/loop
#*******************************************************************************#
#                                Wells loop                                     #
#*******************************************************************************#
#%       Created by:                                                           *%
#%            Nicodemo Di Pasquale                                             *%
#%            Department of Mathematics                                        *%
#%            University of Leicester                                          *%
#%            March 2018                                                       *%
#%******************************************************************************%

variable    lambda equal 0.84

fix f2 all wellPforce 6 0.661347110162023 3 0.84 file fcc111-T01-wells.lmp

Well depth 0.84
run   0
Generated 0 of 1 mixed pair_coeff terms from geometric mixing rule
Loop time of 1e-06 on 4 procs for 0 steps with 540 atoms

fix  f5 all ave/time 2 500 1000  c_thermo_temp c_thermo_pe f_f2 v_lambda file  out/ave.F.43.out

run  1000
Generated 0 of 1 mixed pair_coeff terms from geometric mixing rule
Loop time of 0.0941862 on 4 procs for 1000 steps with 540 atoms

# --------------------------- Unfix --------------------------------------------

unfix f5
unfix f2

#%*****************************************************************************%
variable    ii   equal 43+1
variable    i    equal 44
next lam
jump SELF here
include    in.loop/loop
#*******************************************************************************#
#                                Wells loop                                     #
#*******************************************************************************#
#%       Created by:                                                           *%
#%            Nicodemo Di Pasquale                                             *%
#%            Department of Mathematics                                        *%
#%            University of Leicester                                          *%
#%            March 2018                                                       *%
#%******************************************************************************%

variable    lambda equal 0.86

fix f2 all wellPforce 6 0.661347110162023 3 0.86 file fcc111-T01-wells.lmp

Well depth 0.86
run   0
Generated 0 of 1 mixed pair_coeff terms from geometric mixing rule
Loop time of 1.14575e-06 on 4 procs for 0 steps with 540 atoms

fix  f5 all ave/time 2 500 1000  c_thermo_temp c_thermo_pe f_f2 v_lambda file  out/ave.F.44.out

run  1000
Generated 0 of 1 mixed pair_coeff terms from geometric mixing rule
Loop time of 0.0930021 on 4 procs for 1000 steps with 540 atoms

# --------------------------- Unfix --------------------------------------------

unfix f5
unfix f2

#%*****************************************************************************%
variable    ii   equal 44+1
variable    i    equal 45
next lam
jump SELF here
include    in.loop/loop
#*******************************************************************************#
#                                Wells loop                                     #
#*******************************************************************************#
#%       Created by:                                                           *%
#%            Nicodemo Di Pasquale                                             *%
#%            Department of Mathematics                                        *%
#%            University of Leicester                                          *%
#%            March 2018                                                       *%
#%******************************************************************************%

variable    lambda equal 0.88

fix f2 all wellPforce 6 0.661347110162023 3 0.88 file fcc111-T01-wells.lmp

Well depth 0.88
run   0
Generated 0 of 1 mixed pair_coeff terms from geometric mixing rule
Loop time of 9.5825e-07 on 4 procs for 0 steps with 540 atoms

fix  f5 all ave/time 2 500 1000  c_thermo_temp c_thermo_pe f_f2 v_lambda file  out/ave.F.45.out

run  1000
Generated 0 of 1 mixed pair_coeff terms from geometric mixing rule
Loop time of 0.0944198 on 4 procs for 1000 steps with 540 atoms

# --------------------------- Unfix --------------------------------------------

unfix f5
unfix f2

#%*****************************************************************************%
variable    ii   equal 45+1
variable    i    equal 46
next lam
jump SELF here
include    in.loop/loop
#*******************************************************************************#
#                                Wells loop                                     #
#*******************************************************************************#
#%       Created by:                                                           *%
#%            Nicodemo Di Pasquale                                             *%
#%            Department of Mathematics                                        *%
#%            University of Leicester                                          *%
#%            March 2018                                                       *%
#%******************************************************************************%

variable    lambda equal 0.9

fix f2 all wellPforce 6 0.661347110162023 3 0.9 file fcc111-T01-wells.lmp

Well depth 0.9
run   0
Generated 0 of 1 mixed pair_coeff terms from geometric mixing rule
Loop time of 9.2725e-07 on 4 procs for 0 steps with 540 atoms

fix  f5 all ave/time 2 500 1000  c_thermo_temp c_thermo_pe f_f2 v_lambda file  out/ave.F.46.out

run  1000
Generated 0 of 1 mixed pair_coeff terms from geometric mixing rule
Loop time of 0.0967262 on 4 procs for 1000 steps with 540 atoms

# --------------------------- Unfix --------------------------------------------

unfix f5
unfix f2

#%*****************************************************************************%
variable    ii   equal 46+1
variable    i    equal 47
next lam
jump SELF here
include    in.loop/loop
#*******************************************************************************#
#                                Wells loop                                     #
#*******************************************************************************#
#%       Created by:                                                           *%
#%            Nicodemo Di Pasquale                                             *%
#%            Department of Mathematics                                        *%
#%            University of Leicester                                          *%
#%            March 2018                                                       *%
#%******************************************************************************%

variable    lambda equal 0.92

fix f2 all wellPforce 6 0.661347110162023 3 0.92 file fcc111-T01-wells.lmp

Well depth 0.92
run   0
Generated 0 of 1 mixed pair_coeff terms from geometric mixing rule
Loop time of 8.6475e-07 on 4 procs for 0 steps with 540 atoms

fix  f5 all ave/time 2 500 1000  c_thermo_temp c_thermo_pe f_f2 v_lambda file  out/ave.F.47.out

run  1000
Generated 0 of 1 mixed pair_coeff terms from geometric mixing rule
Loop time of 0.0950047 on 4 procs for 1000 steps with 540 atoms

# --------------------------- Unfix --------------------------------------------

unfix f5
unfix f2

#%*****************************************************************************%
variable    ii   equal 47+1
variable    i    equal 48
next lam
jump SELF here
include    in.loop/loop
#*******************************************************************************#
#                                Wells loop                                     #
#*******************************************************************************#
#%       Created by:                                                           *%
#%            Nicodemo Di Pasquale                                             *%
#%            Department of Mathematics                                        *%
#%            University of Leicester                                          *%
#%            March 2018                                                       *%
#%******************************************************************************%

variable    lambda equal 0.94

fix f2 all wellPforce 6 0.661347110162023 3 0.94 file fcc111-T01-wells.lmp

Well depth 0.94
run   0
Generated 0 of 1 mixed pair_coeff terms from geometric mixing rule
Loop time of 8.855e-07 on 4 procs for 0 steps with 540 atoms

fix  f5 all ave/time 2 500 1000  c_thermo_temp c_thermo_pe f_f2 v_lambda file  out/ave.F.48.out

run  1000
Generated 0 of 1 mixed pair_coeff terms from geometric mixing rule
Loop time of 0.0951254 on 4 procs for 1000 steps with 540 atoms

# --------------------------- Unfix --------------------------------------------

unfix f5
unfix f2

#%*****************************************************************************%
variable    ii   equal 48+1
variable    i    equal 49
next lam
jump SELF here
include    in.loop/loop
#*******************************************************************************#
#                                Wells loop                                     #
#*******************************************************************************#
#%       Created by:                                                           *%
#%            Nicodemo Di Pasquale                                             *%
#%            Department of Mathematics                                        *%
#%            University of Leicester                                          *%
#%            March 2018                                                       *%
#%******************************************************************************%

variable    lambda equal 0.96

fix f2 all wellPforce 6 0.661347110162023 3 0.96 file fcc111-T01-wells.lmp

Well depth 0.96
run   0
Generated 0 of 1 mixed pair_coeff terms from geometric mixing rule
Loop time of 1.12525e-06 on 4 procs for 0 steps with 540 atoms

fix  f5 all ave/time 2 500 1000  c_thermo_temp c_thermo_pe f_f2 v_lambda file  out/ave.F.49.out

run  1000
Generated 0 of 1 mixed pair_coeff terms from geometric mixing rule
Loop time of 0.0942091 on 4 procs for 1000 steps with 540 atoms

# --------------------------- Unfix --------------------------------------------

unfix f5
unfix f2

#%*****************************************************************************%
variable    ii   equal 49+1
variable    i    equal 50
next lam
jump SELF here
include    in.loop/loop
#*******************************************************************************#
#                                Wells loop                                     #
#*******************************************************************************#
#%       Created by:                                                           *%
#%            Nicodemo Di Pasquale                                             *%
#%            Department of Mathematics                                        *%
#%            University of Leicester                                          *%
#%            March 2018                                                       *%
#%******************************************************************************%

variable    lambda equal 0.98

fix f2 all wellPforce 6 0.661347110162023 3 0.98 file fcc111-T01-wells.lmp

Well depth 0.98
run   0
Generated 0 of 1 mixed pair_coeff terms from geometric mixing rule
Loop time of 9.48e-07 on 4 procs for 0 steps with 540 atoms

fix  f5 all ave/time 2 500 1000  c_thermo_temp c_thermo_pe f_f2 v_lambda file  out/ave.F.50.out

run  1000
Generated 0 of 1 mixed pair_coeff terms from geometric mixing rule
Loop time of 0.0949468 on 4 procs for 1000 steps with 540 atoms

# --------------------------- Unfix --------------------------------------------

unfix f5
unfix f2

#%*****************************************************************************%
variable    ii   equal 50+1
variable    i    equal 51
next lam
jump SELF here
include    in.loop/loop
#*******************************************************************************#
#                                Wells loop                                     #
#*******************************************************************************#
#%       Created by:                                                           *%
#%            Nicodemo Di Pasquale                                             *%
#%            Department of Mathematics                                        *%
#%            University of Leicester                                          *%
#%            March 2018                                                       *%
#%******************************************************************************%

variable    lambda equal 1

fix f2 all wellPforce 6 0.661347110162023 3 1 file fcc111-T01-wells.lmp

Well depth 1
run   0
Generated 0 of 1 mixed pair_coeff terms from geometric mixing rule
Loop time of 1.177e-06 on 4 procs for 0 steps with 540 atoms

fix  f5 all ave/time 2 500 1000  c_thermo_temp c_thermo_pe f_f2 v_lambda file  out/ave.F.51.out

run  1000
Generated 0 of 1 mixed pair_coeff terms from geometric mixing rule
Loop time of 0.094796 on 4 procs for 1000 steps with 540 atoms

# --------------------------- Unfix --------------------------------------------

unfix f5
unfix f2

#%*****************************************************************************%
variable    ii   equal 51+1
variable    i    equal 52
next lam
jump SELF here

write_data Fstep1.52.data nocoeff
System init for write_data ...
Generated 0 of 1 mixed pair_coeff terms from geometric mixing rule
