LAMMPS (2 Aug 2023)
###%***************************************************************************%
###%                                                                          *%
###%    Script to run Step 4 of the Cleaving Method with Walls                *%
###%                                                                          *%
###%***************************************************************************%
###%                                                                          *%
###%    Based on:                                                             *%
###%    R. Davidchack, B. Laird, J. Chem. Phys., 118:7651-7657 (2003)         *%
###%                                                                          *%
###%   ~~~~~~~~~~~~~~~~~~~~~~~~~~~~~~~~~~~~~~~~~~~~~~~~~~~~~~~~~~~~~~         *%
###%                                                                          *%
###%    Created by:                                                           *%
###%    Nicodemo Di Pasquale                                                  *%
###%    Department of Mathematics                                             *%
###%    University of Leicester                                               *%
###%    24 March 2018                                                         *%
###%                                                                          *%
###%***************************************************************************%

units		lj
atom_style	atomic

boundary p p p
read_data   inputStep4.lmp
Reading data file ...
  orthogonal box = (0 0 0) to (5.5112433 5.7274521 32.399362)
  reading atoms ...
  1080 atoms
  reading velocities ...
  1080 velocities

group crys type 1 4
540 atoms in group crys
group liquid type  2 3
540 atoms in group liquid

mass * 1.0

# ---------------------------- Define variables --------------------------------

variable clwall1 equal 8.099840380596101
variable clwall2 equal 24.299521141788304
variable  cnt     equal  1
variable  siglj   equal  1.0
variable  epslj   equal  1.0
variable  sigma   equal  1.0
variable  eps     equal  1.0
variable  delta   equal  0.25
variable  zw file zwalls_back.dat
variable  crw     equal  2.0^(1.0/6.0)
variable  eqnts   equal  0
variable  nts     equal  1000
variable  ts      equal  0.005
variable  cut1    equal  2.3
variable  cut2    equal  2.5
variable  Tsyst   equal  0.617
variable  Tdump   equal  0.0748
variable Nevery equal 2
variable Nrepeat equal 500
variable Nfreq equal 1000
variable thermoSteps equal 5000

# ----- Derivate variables ------

variable  cutoff1  equal  1*2.3
variable  cutoff2  equal  1*2.5
variable  rw       equal  1*1.12246204830937
variable  cntt     equal 1

# ----------------------------- Interactions -----------------------------------

pair_style lj/BG 2.3 2.5
pair_coeff   * *  1 1

neighbor     0.3 bin
neigh_modify every 1 delay 0 check yes
atom_modify  sort 0 0.0

# ------------- Output thermo information and averaged variables ---------------

fix  f4  all nvt temp 0.617 0.617 0.0748

thermo    5000
timestep  0.005

# -------------------------- Zero linear momentum ------------------------------

fix    f5  all momentum 1000 linear 1 1 1

# ----------------------- Moving Walls  ------------------------

label here
include    in.loop/loop
###%***************************************************************************%
###%    Created by:                                                           *%
###%    Nicodemo Di Pasquale                                                  *%
###%    Department of Mathematics                                             *%
###%    University of Leicester                                               *%
###%    24 March 2018                                                         *%
###%***************************************************************************%

variable    zwalls equal 0.62

Wall Position 0.62

fix  totWA all wallforce 1 1 0.62 0.25 1.12246204830937 8.0998403805961 file  fcc111-T1-walls.lmp
fix  totWB all wallforce 1 1 0.62 0.25 1.12246204830937 24.2995211417883 file  fcc111-T1-walls.lmp
variable totW   equal "f_totWA + f_totWB"

run   0
Generated 0 of 6 mixed pair_coeff terms from geometric mixing rule
Step          Temp          E_pair         E_mol          TotEng         Press
0   0.58952707    -6.5681251      0             -5.6846533      4.6398797
Loop time of 1.72925e-06 on 4 procs for 0 steps with 1080 atoms

fix    f6 all ave/time  2 500 1000  c_thermo_temp c_thermo_pe v_totW v_zwalls f_totWA f_totWB file out/ave.F.1.out

run 1000
Generated 0 of 6 mixed pair_coeff terms from geometric mixing rule
Step          Temp          E_pair         E_mol          TotEng         Press
0   0.58952707    -6.5681251      0             -5.6846533      4.6398797
Loop time of 0.392855 on 4 procs for 1000 steps with 1080 atoms

unfix totWA
unfix totWB
unfix f6

#%*****************************************************************************%
variable    cntt equal 1+1
variable    cnt  equal 2
next zw
jump SELF here
include    in.loop/loop
###%***************************************************************************%
###%    Created by:                                                           *%
###%    Nicodemo Di Pasquale                                                  *%
###%    Department of Mathematics                                             *%
###%    University of Leicester                                               *%
###%    24 March 2018                                                         *%
###%***************************************************************************%

variable    zwalls equal 0.64

Wall Position 0.64

fix  totWA all wallforce 1 1 0.64 0.25 1.12246204830937 8.0998403805961 file  fcc111-T1-walls.lmp
fix  totWB all wallforce 1 1 0.64 0.25 1.12246204830937 24.2995211417883 file  fcc111-T1-walls.lmp
variable totW   equal "f_totWA + f_totWB"

run   0
Generated 0 of 6 mixed pair_coeff terms from geometric mixing rule
Step          Temp          E_pair         E_mol          TotEng         Press
1000   0.59737527    -6.5744728      0             -5.6792396      4.6246979
Loop time of 1.39575e-06 on 4 procs for 0 steps with 1080 atoms

fix    f6 all ave/time  2 500 1000  c_thermo_temp c_thermo_pe v_totW v_zwalls f_totWA f_totWB file out/ave.F.2.out

run 1000
Generated 0 of 6 mixed pair_coeff terms from geometric mixing rule
Step          Temp          E_pair         E_mol          TotEng         Press
1000   0.59737527    -6.5744728      0             -5.6792396      4.6246979
Loop time of 0.391584 on 4 procs for 1000 steps with 1080 atoms

unfix totWA
unfix totWB
unfix f6

#%*****************************************************************************%
variable    cntt equal 2+1
variable    cnt  equal 3
next zw
jump SELF here
include    in.loop/loop
###%***************************************************************************%
###%    Created by:                                                           *%
###%    Nicodemo Di Pasquale                                                  *%
###%    Department of Mathematics                                             *%
###%    University of Leicester                                               *%
###%    24 March 2018                                                         *%
###%***************************************************************************%

variable    zwalls equal 0.66

Wall Position 0.66

fix  totWA all wallforce 1 1 0.66 0.25 1.12246204830937 8.0998403805961 file  fcc111-T1-walls.lmp
fix  totWB all wallforce 1 1 0.66 0.25 1.12246204830937 24.2995211417883 file  fcc111-T1-walls.lmp
variable totW   equal "f_totWA + f_totWB"

run   0
Generated 0 of 6 mixed pair_coeff terms from geometric mixing rule
Step          Temp          E_pair         E_mol          TotEng         Press
2000   0.58607768    -6.6140238      0             -5.7357213      4.3985199
Loop time of 1.2915e-06 on 4 procs for 0 steps with 1080 atoms

fix    f6 all ave/time  2 500 1000  c_thermo_temp c_thermo_pe v_totW v_zwalls f_totWA f_totWB file out/ave.F.3.out

run 1000
Generated 0 of 6 mixed pair_coeff terms from geometric mixing rule
Step          Temp          E_pair         E_mol          TotEng         Press
2000   0.58607768    -6.6140238      0             -5.7357213      4.3985199
Loop time of 0.450448 on 4 procs for 1000 steps with 1080 atoms

unfix totWA
unfix totWB
unfix f6

#%*****************************************************************************%
variable    cntt equal 3+1
variable    cnt  equal 4
next zw
jump SELF here
include    in.loop/loop
###%***************************************************************************%
###%    Created by:                                                           *%
###%    Nicodemo Di Pasquale                                                  *%
###%    Department of Mathematics                                             *%
###%    University of Leicester                                               *%
###%    24 March 2018                                                         *%
###%***************************************************************************%

variable    zwalls equal 0.68

Wall Position 0.68

fix  totWA all wallforce 1 1 0.68 0.25 1.12246204830937 8.0998403805961 file  fcc111-T1-walls.lmp
fix  totWB all wallforce 1 1 0.68 0.25 1.12246204830937 24.2995211417883 file  fcc111-T1-walls.lmp
variable totW   equal "f_totWA + f_totWB"

run   0
Generated 0 of 6 mixed pair_coeff terms from geometric mixing rule
Step          Temp          E_pair         E_mol          TotEng         Press
3000   0.60954431    -6.5615808      0             -5.6481109      4.6818787
Loop time of 1.53125e-06 on 4 procs for 0 steps with 1080 atoms

fix    f6 all ave/time  2 500 1000  c_thermo_temp c_thermo_pe v_totW v_zwalls f_totWA f_totWB file out/ave.F.4.out

run 1000
Generated 0 of 6 mixed pair_coeff terms from geometric mixing rule
Step          Temp          E_pair         E_mol          TotEng         Press
3000   0.60954431    -6.5615808      0             -5.6481109      4.6818787
Loop time of 0.392827 on 4 procs for 1000 steps with 1080 atoms

unfix totWA
unfix totWB
unfix f6

#%*****************************************************************************%
variable    cntt equal 4+1
variable    cnt  equal 5
next zw
jump SELF here
include    in.loop/loop
###%***************************************************************************%
###%    Created by:                                                           *%
###%    Nicodemo Di Pasquale                                                  *%
###%    Department of Mathematics                                             *%
###%    University of Leicester                                               *%
###%    24 March 2018                                                         *%
###%***************************************************************************%

variable    zwalls equal 0.7

Wall Position 0.7

fix  totWA all wallforce 1 1 0.7 0.25 1.12246204830937 8.0998403805961 file  fcc111-T1-walls.lmp
fix  totWB all wallforce 1 1 0.7 0.25 1.12246204830937 24.2995211417883 file  fcc111-T1-walls.lmp
variable totW   equal "f_totWA + f_totWB"

run   0
Generated 0 of 6 mixed pair_coeff terms from geometric mixing rule
Step          Temp          E_pair         E_mol          TotEng         Press
4000   0.62401683    -6.6001827      0             -5.6650242      4.5037614
Loop time of 1.2605e-06 on 4 procs for 0 steps with 1080 atoms

fix    f6 all ave/time  2 500 1000  c_thermo_temp c_thermo_pe v_totW v_zwalls f_totWA f_totWB file out/ave.F.5.out

run 1000
Generated 0 of 6 mixed pair_coeff terms from geometric mixing rule
Step          Temp          E_pair         E_mol          TotEng         Press
4000   0.62401683    -6.6001827      0             -5.6650242      4.5037614
Loop time of 0.39018 on 4 procs for 1000 steps with 1080 atoms

unfix totWA
unfix totWB
unfix f6

#%*****************************************************************************%
variable    cntt equal 5+1
variable    cnt  equal 6
next zw
jump SELF here
include    in.loop/loop
###%***************************************************************************%
###%    Created by:                                                           *%
###%    Nicodemo Di Pasquale                                                  *%
###%    Department of Mathematics                                             *%
###%    University of Leicester                                               *%
###%    24 March 2018                                                         *%
###%***************************************************************************%

variable    zwalls equal 0.72

Wall Position 0.72

fix  totWA all wallforce 1 1 0.72 0.25 1.12246204830937 8.0998403805961 file  fcc111-T1-walls.lmp
fix  totWB all wallforce 1 1 0.72 0.25 1.12246204830937 24.2995211417883 file  fcc111-T1-walls.lmp
variable totW   equal "f_totWA + f_totWB"

run   0
Generated 0 of 6 mixed pair_coeff terms from geometric mixing rule
Step          Temp          E_pair         E_mol          TotEng         Press
5000   0.61691304    -6.6134741      0             -5.6889614      4.4057107
Loop time of 1.4895e-06 on 4 procs for 0 steps with 1080 atoms

fix    f6 all ave/time  2 500 1000  c_thermo_temp c_thermo_pe v_totW v_zwalls f_totWA f_totWB file out/ave.F.6.out

run 1000
Generated 0 of 6 mixed pair_coeff terms from geometric mixing rule
Step          Temp          E_pair         E_mol          TotEng         Press
5000   0.61691304    -6.6134741      0             -5.6889614      4.4057107
Loop time of 0.390971 on 4 procs for 1000 steps with 1080 atoms

unfix totWA
unfix totWB
unfix f6

#%*****************************************************************************%
variable    cntt equal 6+1
variable    cnt  equal 7
next zw
jump SELF here
include    in.loop/loop
###%***************************************************************************%
###%    Created by:                                                           *%
###%    Nicodemo Di Pasquale                                                  *%
###%    Department of Mathematics                                             *%
###%    University of Leicester                                               *%
###%    24 March 2018                                                         *%
###%***************************************************************************%

variable    zwalls equal 0.74

Wall Position 0.74

fix  totWA all wallforce 1 1 0.74 0.25 1.12246204830937 8.0998403805961 file  fcc111-T1-walls.lmp
fix  totWB all wallforce 1 1 0.74 0.25 1.12246204830937 24.2995211417883 file  fcc111-T1-walls.lmp
variable totW   equal "f_totWA + f_totWB"

run   0
Generated 0 of 6 mixed pair_coeff terms from geometric mixing rule
Step          Temp          E_pair         E_mol          TotEng         Press
6000   0.64222848    -6.5629303      0             -5.6004796      4.7247605
Loop time of 1.72925e-06 on 4 procs for 0 steps with 1080 atoms

fix    f6 all ave/time  2 500 1000  c_thermo_temp c_thermo_pe v_totW v_zwalls f_totWA f_totWB file out/ave.F.7.out

run 1000
Generated 0 of 6 mixed pair_coeff terms from geometric mixing rule
Step          Temp          E_pair         E_mol          TotEng         Press
6000   0.64222848    -6.5629303      0             -5.6004796      4.7247605
Loop time of 0.393882 on 4 procs for 1000 steps with 1080 atoms

unfix totWA
unfix totWB
unfix f6

#%*****************************************************************************%
variable    cntt equal 7+1
variable    cnt  equal 8
next zw
jump SELF here
include    in.loop/loop
###%***************************************************************************%
###%    Created by:                                                           *%
###%    Nicodemo Di Pasquale                                                  *%
###%    Department of Mathematics                                             *%
###%    University of Leicester                                               *%
###%    24 March 2018                                                         *%
###%***************************************************************************%

variable    zwalls equal 0.76

Wall Position 0.76

fix  totWA all wallforce 1 1 0.76 0.25 1.12246204830937 8.0998403805961 file  fcc111-T1-walls.lmp
fix  totWB all wallforce 1 1 0.76 0.25 1.12246204830937 24.2995211417883 file  fcc111-T1-walls.lmp
variable totW   equal "f_totWA + f_totWB"

run   0
Generated 0 of 6 mixed pair_coeff terms from geometric mixing rule
Step          Temp          E_pair         E_mol          TotEng         Press
7000   0.61368673    -6.6114797      0             -5.6918019      4.4166613
Loop time of 1.58325e-06 on 4 procs for 0 steps with 1080 atoms

fix    f6 all ave/time  2 500 1000  c_thermo_temp c_thermo_pe v_totW v_zwalls f_totWA f_totWB file out/ave.F.8.out

run 1000
Generated 0 of 6 mixed pair_coeff terms from geometric mixing rule
Step          Temp          E_pair         E_mol          TotEng         Press
7000   0.61368673    -6.6114797      0             -5.6918019      4.4166613
Loop time of 0.395004 on 4 procs for 1000 steps with 1080 atoms

unfix totWA
unfix totWB
unfix f6

#%*****************************************************************************%
variable    cntt equal 8+1
variable    cnt  equal 9
next zw
jump SELF here
include    in.loop/loop
###%***************************************************************************%
###%    Created by:                                                           *%
###%    Nicodemo Di Pasquale                                                  *%
###%    Department of Mathematics                                             *%
###%    University of Leicester                                               *%
###%    24 March 2018                                                         *%
###%***************************************************************************%

variable    zwalls equal 0.78

Wall Position 0.78

fix  totWA all wallforce 1 1 0.78 0.25 1.12246204830937 8.0998403805961 file  fcc111-T1-walls.lmp
fix  totWB all wallforce 1 1 0.78 0.25 1.12246204830937 24.2995211417883 file  fcc111-T1-walls.lmp
variable totW   equal "f_totWA + f_totWB"

run   0
Generated 0 of 6 mixed pair_coeff terms from geometric mixing rule
Step          Temp          E_pair         E_mol          TotEng         Press
8000   0.62789838    -6.6103012      0             -5.6693258      4.4575077
Loop time of 1.37475e-06 on 4 procs for 0 steps with 1080 atoms

fix    f6 all ave/time  2 500 1000  c_thermo_temp c_thermo_pe v_totW v_zwalls f_totWA f_totWB file out/ave.F.9.out

run 1000
Generated 0 of 6 mixed pair_coeff terms from geometric mixing rule
Step          Temp          E_pair         E_mol          TotEng         Press
8000   0.62789838    -6.6103012      0             -5.6693258      4.4575077
Loop time of 0.394816 on 4 procs for 1000 steps with 1080 atoms

unfix totWA
unfix totWB
unfix f6

#%*****************************************************************************%
variable    cntt equal 9+1
variable    cnt  equal 10
next zw
jump SELF here
include    in.loop/loop
###%***************************************************************************%
###%    Created by:                                                           *%
###%    Nicodemo Di Pasquale                                                  *%
###%    Department of Mathematics                                             *%
###%    University of Leicester                                               *%
###%    24 March 2018                                                         *%
###%***************************************************************************%

variable    zwalls equal 0.8

Wall Position 0.8

fix  totWA all wallforce 1 1 0.8 0.25 1.12246204830937 8.0998403805961 file  fcc111-T1-walls.lmp
fix  totWB all wallforce 1 1 0.8 0.25 1.12246204830937 24.2995211417883 file  fcc111-T1-walls.lmp
variable totW   equal "f_totWA + f_totWB"

run   0
Generated 0 of 6 mixed pair_coeff terms from geometric mixing rule
Step          Temp          E_pair         E_mol          TotEng         Press
9000   0.61728938    -6.5629323      0             -5.6378556      4.7040592
Loop time of 1.23975e-06 on 4 procs for 0 steps with 1080 atoms

fix    f6 all ave/time  2 500 1000  c_thermo_temp c_thermo_pe v_totW v_zwalls f_totWA f_totWB file out/ave.F.10.out

run 1000
Generated 0 of 6 mixed pair_coeff terms from geometric mixing rule
Step          Temp          E_pair         E_mol          TotEng         Press
9000   0.61728938    -6.5629323      0             -5.6378556      4.7040592
Loop time of 0.395416 on 4 procs for 1000 steps with 1080 atoms

unfix totWA
unfix totWB
unfix f6

#%*****************************************************************************%
variable    cntt equal 10+1
variable    cnt  equal 11
next zw
jump SELF here
include    in.loop/loop
###%***************************************************************************%
###%    Created by:                                                           *%
###%    Nicodemo Di Pasquale                                                  *%
###%    Department of Mathematics                                             *%
###%    University of Leicester                                               *%
###%    24 March 2018                                                         *%
###%***************************************************************************%

variable    zwalls equal 0.82

Wall Position 0.82

fix  totWA all wallforce 1 1 0.82 0.25 1.12246204830937 8.0998403805961 file  fcc111-T1-walls.lmp
fix  totWB all wallforce 1 1 0.82 0.25 1.12246204830937 24.2995211417883 file  fcc111-T1-walls.lmp
variable totW   equal "f_totWA + f_totWB"

run   0
Generated 0 of 6 mixed pair_coeff terms from geometric mixing rule
Step          Temp          E_pair         E_mol          TotEng         Press
10000   0.61555782    -6.6030468      0             -5.680565       4.4863384
Loop time of 1.479e-06 on 4 procs for 0 steps with 1080 atoms

fix    f6 all ave/time  2 500 1000  c_thermo_temp c_thermo_pe v_totW v_zwalls f_totWA f_totWB file out/ave.F.11.out

run 1000
Generated 0 of 6 mixed pair_coeff terms from geometric mixing rule
Step          Temp          E_pair         E_mol          TotEng         Press
10000   0.61555782    -6.6030468      0             -5.680565       4.4863384
Loop time of 0.389124 on 4 procs for 1000 steps with 1080 atoms

unfix totWA
unfix totWB
unfix f6

#%*****************************************************************************%
variable    cntt equal 11+1
variable    cnt  equal 12
next zw
jump SELF here
include    in.loop/loop
###%***************************************************************************%
###%    Created by:                                                           *%
###%    Nicodemo Di Pasquale                                                  *%
###%    Department of Mathematics                                             *%
###%    University of Leicester                                               *%
###%    24 March 2018                                                         *%
###%***************************************************************************%

variable    zwalls equal 0.84

Wall Position 0.84

fix  totWA all wallforce 1 1 0.84 0.25 1.12246204830937 8.0998403805961 file  fcc111-T1-walls.lmp
fix  totWB all wallforce 1 1 0.84 0.25 1.12246204830937 24.2995211417883 file  fcc111-T1-walls.lmp
variable totW   equal "f_totWA + f_totWB"

run   0
Generated 0 of 6 mixed pair_coeff terms from geometric mixing rule
Step          Temp          E_pair         E_mol          TotEng         Press
11000   0.59542111    -6.6028823      0             -5.7105777      4.4637496
Loop time of 1.2395e-06 on 4 procs for 0 steps with 1080 atoms

fix    f6 all ave/time  2 500 1000  c_thermo_temp c_thermo_pe v_totW v_zwalls f_totWA f_totWB file out/ave.F.12.out

run 1000
Generated 0 of 6 mixed pair_coeff terms from geometric mixing rule
Step          Temp          E_pair         E_mol          TotEng         Press
11000   0.59542111    -6.6028823      0             -5.7105777      4.4637496
Loop time of 0.396256 on 4 procs for 1000 steps with 1080 atoms

unfix totWA
unfix totWB
unfix f6

#%*****************************************************************************%
variable    cntt equal 12+1
variable    cnt  equal 13
next zw
jump SELF here
include    in.loop/loop
###%***************************************************************************%
###%    Created by:                                                           *%
###%    Nicodemo Di Pasquale                                                  *%
###%    Department of Mathematics                                             *%
###%    University of Leicester                                               *%
###%    24 March 2018                                                         *%
###%***************************************************************************%

variable    zwalls equal 0.86

Wall Position 0.86

fix  totWA all wallforce 1 1 0.86 0.25 1.12246204830937 8.0998403805961 file  fcc111-T1-walls.lmp
fix  totWB all wallforce 1 1 0.86 0.25 1.12246204830937 24.2995211417883 file  fcc111-T1-walls.lmp
variable totW   equal "f_totWA + f_totWB"

run   0
Generated 0 of 6 mixed pair_coeff terms from geometric mixing rule
Step          Temp          E_pair         E_mol          TotEng         Press
12000   0.62398392    -6.5732127      0             -5.6381035      4.6542463
Loop time of 1.4895e-06 on 4 procs for 0 steps with 1080 atoms

fix    f6 all ave/time  2 500 1000  c_thermo_temp c_thermo_pe v_totW v_zwalls f_totWA f_totWB file out/ave.F.13.out

run 1000
Generated 0 of 6 mixed pair_coeff terms from geometric mixing rule
Step          Temp          E_pair         E_mol          TotEng         Press
12000   0.62398392    -6.5732127      0             -5.6381035      4.6542463
Loop time of 0.393889 on 4 procs for 1000 steps with 1080 atoms

unfix totWA
unfix totWB
unfix f6

#%*****************************************************************************%
variable    cntt equal 13+1
variable    cnt  equal 14
next zw
jump SELF here
include    in.loop/loop
###%***************************************************************************%
###%    Created by:                                                           *%
###%    Nicodemo Di Pasquale                                                  *%
###%    Department of Mathematics                                             *%
###%    University of Leicester                                               *%
###%    24 March 2018                                                         *%
###%***************************************************************************%

variable    zwalls equal 0.88

Wall Position 0.88

fix  totWA all wallforce 1 1 0.88 0.25 1.12246204830937 8.0998403805961 file  fcc111-T1-walls.lmp
fix  totWB all wallforce 1 1 0.88 0.25 1.12246204830937 24.2995211417883 file  fcc111-T1-walls.lmp
variable totW   equal "f_totWA + f_totWB"

run   0
Generated 0 of 6 mixed pair_coeff terms from geometric mixing rule
Step          Temp          E_pair         E_mol          TotEng         Press
13000   0.63967737    -6.5756334      0             -5.6170058      4.6445433
Loop time of 1.2185e-06 on 4 procs for 0 steps with 1080 atoms

fix    f6 all ave/time  2 500 1000  c_thermo_temp c_thermo_pe v_totW v_zwalls f_totWA f_totWB file out/ave.F.14.out

run 1000
Generated 0 of 6 mixed pair_coeff terms from geometric mixing rule
Step          Temp          E_pair         E_mol          TotEng         Press
13000   0.63967737    -6.5756334      0             -5.6170058      4.6445433
Loop time of 0.390154 on 4 procs for 1000 steps with 1080 atoms

unfix totWA
unfix totWB
unfix f6

#%*****************************************************************************%
variable    cntt equal 14+1
variable    cnt  equal 15
next zw
jump SELF here
include    in.loop/loop
###%***************************************************************************%
###%    Created by:                                                           *%
###%    Nicodemo Di Pasquale                                                  *%
###%    Department of Mathematics                                             *%
###%    University of Leicester                                               *%
###%    24 March 2018                                                         *%
###%***************************************************************************%

variable    zwalls equal 0.9

Wall Position 0.9

fix  totWA all wallforce 1 1 0.9 0.25 1.12246204830937 8.0998403805961 file  fcc111-T1-walls.lmp
fix  totWB all wallforce 1 1 0.9 0.25 1.12246204830937 24.2995211417883 file  fcc111-T1-walls.lmp
variable totW   equal "f_totWA + f_totWB"

run   0
Generated 0 of 6 mixed pair_coeff terms from geometric mixing rule
Step          Temp          E_pair         E_mol          TotEng         Press
14000   0.62166015    -6.6017056      0             -5.6700787      4.4871878
Loop time of 1.1665e-06 on 4 procs for 0 steps with 1080 atoms

fix    f6 all ave/time  2 500 1000  c_thermo_temp c_thermo_pe v_totW v_zwalls f_totWA f_totWB file out/ave.F.15.out

run 1000
Generated 0 of 6 mixed pair_coeff terms from geometric mixing rule
Step          Temp          E_pair         E_mol          TotEng         Press
14000   0.62166015    -6.6017056      0             -5.6700787      4.4871878
Loop time of 0.439153 on 4 procs for 1000 steps with 1080 atoms

unfix totWA
unfix totWB
unfix f6

#%*****************************************************************************%
variable    cntt equal 15+1
variable    cnt  equal 16
next zw
jump SELF here
include    in.loop/loop
###%***************************************************************************%
###%    Created by:                                                           *%
###%    Nicodemo Di Pasquale                                                  *%
###%    Department of Mathematics                                             *%
###%    University of Leicester                                               *%
###%    24 March 2018                                                         *%
###%***************************************************************************%

variable    zwalls equal 0.92

Wall Position 0.92

fix  totWA all wallforce 1 1 0.92 0.25 1.12246204830937 8.0998403805961 file  fcc111-T1-walls.lmp
fix  totWB all wallforce 1 1 0.92 0.25 1.12246204830937 24.2995211417883 file  fcc111-T1-walls.lmp
variable totW   equal "f_totWA + f_totWB"

run   0
Generated 0 of 6 mixed pair_coeff terms from geometric mixing rule
Step          Temp          E_pair         E_mol          TotEng         Press
15000   0.63019143    -6.5830907      0             -5.6386788      4.5890624
Loop time of 1.10375e-06 on 4 procs for 0 steps with 1080 atoms

fix    f6 all ave/time  2 500 1000  c_thermo_temp c_thermo_pe v_totW v_zwalls f_totWA f_totWB file out/ave.F.16.out

run 1000
Generated 0 of 6 mixed pair_coeff terms from geometric mixing rule
Step          Temp          E_pair         E_mol          TotEng         Press
15000   0.63019143    -6.5830907      0             -5.6386788      4.5890624
Loop time of 0.386395 on 4 procs for 1000 steps with 1080 atoms

unfix totWA
unfix totWB
unfix f6

#%*****************************************************************************%
variable    cntt equal 16+1
variable    cnt  equal 17
next zw
jump SELF here
include    in.loop/loop
###%***************************************************************************%
###%    Created by:                                                           *%
###%    Nicodemo Di Pasquale                                                  *%
###%    Department of Mathematics                                             *%
###%    University of Leicester                                               *%
###%    24 March 2018                                                         *%
###%***************************************************************************%

variable    zwalls equal 0.94

Wall Position 0.94

fix  totWA all wallforce 1 1 0.94 0.25 1.12246204830937 8.0998403805961 file  fcc111-T1-walls.lmp
fix  totWB all wallforce 1 1 0.94 0.25 1.12246204830937 24.2995211417883 file  fcc111-T1-walls.lmp
variable totW   equal "f_totWA + f_totWB"

run   0
Generated 0 of 6 mixed pair_coeff terms from geometric mixing rule
Step          Temp          E_pair         E_mol          TotEng         Press
16000   0.57030303    -6.5429016      0             -5.6882391      4.7575533
Loop time of 1.396e-06 on 4 procs for 0 steps with 1080 atoms

fix    f6 all ave/time  2 500 1000  c_thermo_temp c_thermo_pe v_totW v_zwalls f_totWA f_totWB file out/ave.F.17.out

run 1000
Generated 0 of 6 mixed pair_coeff terms from geometric mixing rule
Step          Temp          E_pair         E_mol          TotEng         Press
16000   0.57030303    -6.5429016      0             -5.6882391      4.7575533
Loop time of 0.396 on 4 procs for 1000 steps with 1080 atoms

unfix totWA
unfix totWB
unfix f6

#%*****************************************************************************%
variable    cntt equal 17+1
variable    cnt  equal 18
next zw
jump SELF here
include    in.loop/loop
###%***************************************************************************%
###%    Created by:                                                           *%
###%    Nicodemo Di Pasquale                                                  *%
###%    Department of Mathematics                                             *%
###%    University of Leicester                                               *%
###%    24 March 2018                                                         *%
###%***************************************************************************%

variable    zwalls equal 0.96

Wall Position 0.96

fix  totWA all wallforce 1 1 0.96 0.25 1.12246204830937 8.0998403805961 file  fcc111-T1-walls.lmp
fix  totWB all wallforce 1 1 0.96 0.25 1.12246204830937 24.2995211417883 file  fcc111-T1-walls.lmp
variable totW   equal "f_totWA + f_totWB"

run   0
Generated 0 of 6 mixed pair_coeff terms from geometric mixing rule
Step          Temp          E_pair         E_mol          TotEng         Press
17000   0.63779241    -6.5813338      0             -5.625531       4.6157896
Loop time of 1.875e-06 on 4 procs for 0 steps with 1080 atoms

fix    f6 all ave/time  2 500 1000  c_thermo_temp c_thermo_pe v_totW v_zwalls f_totWA f_totWB file out/ave.F.18.out

run 1000
Generated 0 of 6 mixed pair_coeff terms from geometric mixing rule
Step          Temp          E_pair         E_mol          TotEng         Press
17000   0.63779241    -6.5813338      0             -5.625531       4.6157896
Loop time of 0.394089 on 4 procs for 1000 steps with 1080 atoms

unfix totWA
unfix totWB
unfix f6

#%*****************************************************************************%
variable    cntt equal 18+1
variable    cnt  equal 19
next zw
jump SELF here
include    in.loop/loop
###%***************************************************************************%
###%    Created by:                                                           *%
###%    Nicodemo Di Pasquale                                                  *%
###%    Department of Mathematics                                             *%
###%    University of Leicester                                               *%
###%    24 March 2018                                                         *%
###%***************************************************************************%

variable    zwalls equal 0.98

Wall Position 0.98

fix  totWA all wallforce 1 1 0.98 0.25 1.12246204830937 8.0998403805961 file  fcc111-T1-walls.lmp
fix  totWB all wallforce 1 1 0.98 0.25 1.12246204830937 24.2995211417883 file  fcc111-T1-walls.lmp
variable totW   equal "f_totWA + f_totWB"

run   0
Generated 0 of 6 mixed pair_coeff terms from geometric mixing rule
Step          Temp          E_pair         E_mol          TotEng         Press
18000   0.6105721     -6.5878969      0             -5.6728868      4.5570436
Loop time of 1.104e-06 on 4 procs for 0 steps with 1080 atoms

fix    f6 all ave/time  2 500 1000  c_thermo_temp c_thermo_pe v_totW v_zwalls f_totWA f_totWB file out/ave.F.19.out

run 1000
Generated 0 of 6 mixed pair_coeff terms from geometric mixing rule
Step          Temp          E_pair         E_mol          TotEng         Press
18000   0.6105721     -6.5878969      0             -5.6728868      4.5570436
Loop time of 0.391633 on 4 procs for 1000 steps with 1080 atoms

unfix totWA
unfix totWB
unfix f6

#%*****************************************************************************%
variable    cntt equal 19+1
variable    cnt  equal 20
next zw
jump SELF here
include    in.loop/loop
###%***************************************************************************%
###%    Created by:                                                           *%
###%    Nicodemo Di Pasquale                                                  *%
###%    Department of Mathematics                                             *%
###%    University of Leicester                                               *%
###%    24 March 2018                                                         *%
###%***************************************************************************%

variable    zwalls equal 1

Wall Position 1

fix  totWA all wallforce 1 1 1 0.25 1.12246204830937 8.0998403805961 file  fcc111-T1-walls.lmp
fix  totWB all wallforce 1 1 1 0.25 1.12246204830937 24.2995211417883 file  fcc111-T1-walls.lmp
variable totW   equal "f_totWA + f_totWB"

run   0
Generated 0 of 6 mixed pair_coeff terms from geometric mixing rule
Step          Temp          E_pair         E_mol          TotEng         Press
19000   0.61712168    -6.5765485      0             -5.6517231      4.6236975
Loop time of 1.5415e-06 on 4 procs for 0 steps with 1080 atoms

fix    f6 all ave/time  2 500 1000  c_thermo_temp c_thermo_pe v_totW v_zwalls f_totWA f_totWB file out/ave.F.20.out

run 1000
Generated 0 of 6 mixed pair_coeff terms from geometric mixing rule
Step          Temp          E_pair         E_mol          TotEng         Press
19000   0.61712168    -6.5765485      0             -5.6517231      4.6236975
Loop time of 0.39503 on 4 procs for 1000 steps with 1080 atoms

unfix totWA
unfix totWB
unfix f6

#%*****************************************************************************%
variable    cntt equal 20+1
variable    cnt  equal 21
next zw
jump SELF here
include    in.loop/loop
###%***************************************************************************%
###%    Created by:                                                           *%
###%    Nicodemo Di Pasquale                                                  *%
###%    Department of Mathematics                                             *%
###%    University of Leicester                                               *%
###%    24 March 2018                                                         *%
###%***************************************************************************%

variable    zwalls equal 1.02

Wall Position 1.02

fix  totWA all wallforce 1 1 1.02 0.25 1.12246204830937 8.0998403805961 file  fcc111-T1-walls.lmp
fix  totWB all wallforce 1 1 1.02 0.25 1.12246204830937 24.2995211417883 file  fcc111-T1-walls.lmp
variable totW   equal "f_totWA + f_totWB"

run   0
Generated 0 of 6 mixed pair_coeff terms from geometric mixing rule
Loop time of 1.3335e-06 on 4 procs for 0 steps with 1080 atoms

fix    f6 all ave/time  2 500 1000  c_thermo_temp c_thermo_pe v_totW v_zwalls f_totWA f_totWB file out/ave.F.21.out

run 1000
Generated 0 of 6 mixed pair_coeff terms from geometric mixing rule
Loop time of 0.390276 on 4 procs for 1000 steps with 1080 atoms

unfix totWA
unfix totWB
unfix f6

#%*****************************************************************************%
variable    cntt equal 21+1
variable    cnt  equal 22
next zw
jump SELF here
include    in.loop/loop
###%***************************************************************************%
###%    Created by:                                                           *%
###%    Nicodemo Di Pasquale                                                  *%
###%    Department of Mathematics                                             *%
###%    University of Leicester                                               *%
###%    24 March 2018                                                         *%
###%***************************************************************************%

variable    zwalls equal 1.04

Wall Position 1.04

fix  totWA all wallforce 1 1 1.04 0.25 1.12246204830937 8.0998403805961 file  fcc111-T1-walls.lmp
fix  totWB all wallforce 1 1 1.04 0.25 1.12246204830937 24.2995211417883 file  fcc111-T1-walls.lmp
variable totW   equal "f_totWA + f_totWB"

run   0
Generated 0 of 6 mixed pair_coeff terms from geometric mixing rule
Loop time of 1.37525e-06 on 4 procs for 0 steps with 1080 atoms

fix    f6 all ave/time  2 500 1000  c_thermo_temp c_thermo_pe v_totW v_zwalls f_totWA f_totWB file out/ave.F.22.out

run 1000
Generated 0 of 6 mixed pair_coeff terms from geometric mixing rule
Loop time of 0.393904 on 4 procs for 1000 steps with 1080 atoms

unfix totWA
unfix totWB
unfix f6

#%*****************************************************************************%
variable    cntt equal 22+1
variable    cnt  equal 23
next zw
jump SELF here
include    in.loop/loop
###%***************************************************************************%
###%    Created by:                                                           *%
###%    Nicodemo Di Pasquale                                                  *%
###%    Department of Mathematics                                             *%
###%    University of Leicester                                               *%
###%    24 March 2018                                                         *%
###%***************************************************************************%

variable    zwalls equal 1.06

Wall Position 1.06

fix  totWA all wallforce 1 1 1.06 0.25 1.12246204830937 8.0998403805961 file  fcc111-T1-walls.lmp
fix  totWB all wallforce 1 1 1.06 0.25 1.12246204830937 24.2995211417883 file  fcc111-T1-walls.lmp
variable totW   equal "f_totWA + f_totWB"

run   0
Generated 0 of 6 mixed pair_coeff terms from geometric mixing rule
Loop time of 1.55225e-06 on 4 procs for 0 steps with 1080 atoms

fix    f6 all ave/time  2 500 1000  c_thermo_temp c_thermo_pe v_totW v_zwalls f_totWA f_totWB file out/ave.F.23.out

run 1000
Generated 0 of 6 mixed pair_coeff terms from geometric mixing rule
Loop time of 0.395982 on 4 procs for 1000 steps with 1080 atoms

unfix totWA
unfix totWB
unfix f6

#%*****************************************************************************%
variable    cntt equal 23+1
variable    cnt  equal 24
next zw
jump SELF here
include    in.loop/loop
###%***************************************************************************%
###%    Created by:                                                           *%
###%    Nicodemo Di Pasquale                                                  *%
###%    Department of Mathematics                                             *%
###%    University of Leicester                                               *%
###%    24 March 2018                                                         *%
###%***************************************************************************%

variable    zwalls equal 1.08

Wall Position 1.08

fix  totWA all wallforce 1 1 1.08 0.25 1.12246204830937 8.0998403805961 file  fcc111-T1-walls.lmp
fix  totWB all wallforce 1 1 1.08 0.25 1.12246204830937 24.2995211417883 file  fcc111-T1-walls.lmp
variable totW   equal "f_totWA + f_totWB"

run   0
Generated 0 of 6 mixed pair_coeff terms from geometric mixing rule
Loop time of 1.5105e-06 on 4 procs for 0 steps with 1080 atoms

fix    f6 all ave/time  2 500 1000  c_thermo_temp c_thermo_pe v_totW v_zwalls f_totWA f_totWB file out/ave.F.24.out

run 1000
Generated 0 of 6 mixed pair_coeff terms from geometric mixing rule
Loop time of 0.392841 on 4 procs for 1000 steps with 1080 atoms

unfix totWA
unfix totWB
unfix f6

#%*****************************************************************************%
variable    cntt equal 24+1
variable    cnt  equal 25
next zw
jump SELF here
include    in.loop/loop
###%***************************************************************************%
###%    Created by:                                                           *%
###%    Nicodemo Di Pasquale                                                  *%
###%    Department of Mathematics                                             *%
###%    University of Leicester                                               *%
###%    24 March 2018                                                         *%
###%***************************************************************************%

variable    zwalls equal 1.1

Wall Position 1.1

fix  totWA all wallforce 1 1 1.1 0.25 1.12246204830937 8.0998403805961 file  fcc111-T1-walls.lmp
fix  totWB all wallforce 1 1 1.1 0.25 1.12246204830937 24.2995211417883 file  fcc111-T1-walls.lmp
variable totW   equal "f_totWA + f_totWB"

run   0
Generated 0 of 6 mixed pair_coeff terms from geometric mixing rule
Loop time of 1.375e-06 on 4 procs for 0 steps with 1080 atoms

fix    f6 all ave/time  2 500 1000  c_thermo_temp c_thermo_pe v_totW v_zwalls f_totWA f_totWB file out/ave.F.25.out

run 1000
Generated 0 of 6 mixed pair_coeff terms from geometric mixing rule
Loop time of 0.389178 on 4 procs for 1000 steps with 1080 atoms

unfix totWA
unfix totWB
unfix f6

#%*****************************************************************************%
variable    cntt equal 25+1
variable    cnt  equal 26
next zw
jump SELF here
include    in.loop/loop
###%***************************************************************************%
###%    Created by:                                                           *%
###%    Nicodemo Di Pasquale                                                  *%
###%    Department of Mathematics                                             *%
###%    University of Leicester                                               *%
###%    24 March 2018                                                         *%
###%***************************************************************************%

variable    zwalls equal 1.12

Wall Position 1.12

fix  totWA all wallforce 1 1 1.12 0.25 1.12246204830937 8.0998403805961 file  fcc111-T1-walls.lmp
fix  totWB all wallforce 1 1 1.12 0.25 1.12246204830937 24.2995211417883 file  fcc111-T1-walls.lmp
variable totW   equal "f_totWA + f_totWB"

run   0
Generated 0 of 6 mixed pair_coeff terms from geometric mixing rule
Loop time of 1.53125e-06 on 4 procs for 0 steps with 1080 atoms

fix    f6 all ave/time  2 500 1000  c_thermo_temp c_thermo_pe v_totW v_zwalls f_totWA f_totWB file out/ave.F.26.out

run 1000
Generated 0 of 6 mixed pair_coeff terms from geometric mixing rule
Loop time of 0.407342 on 4 procs for 1000 steps with 1080 atoms

unfix totWA
unfix totWB
unfix f6

#%*****************************************************************************%
variable    cntt equal 26+1
variable    cnt  equal 27
next zw
jump SELF here
include    in.loop/loop
###%***************************************************************************%
###%    Created by:                                                           *%
###%    Nicodemo Di Pasquale                                                  *%
###%    Department of Mathematics                                             *%
###%    University of Leicester                                               *%
###%    24 March 2018                                                         *%
###%***************************************************************************%

variable    zwalls equal 1.14

Wall Position 1.14

fix  totWA all wallforce 1 1 1.14 0.25 1.12246204830937 8.0998403805961 file  fcc111-T1-walls.lmp
fix  totWB all wallforce 1 1 1.14 0.25 1.12246204830937 24.2995211417883 file  fcc111-T1-walls.lmp
variable totW   equal "f_totWA + f_totWB"

run   0
Generated 0 of 6 mixed pair_coeff terms from geometric mixing rule
Loop time of 1.5625e-06 on 4 procs for 0 steps with 1080 atoms

fix    f6 all ave/time  2 500 1000  c_thermo_temp c_thermo_pe v_totW v_zwalls f_totWA f_totWB file out/ave.F.27.out

run 1000
Generated 0 of 6 mixed pair_coeff terms from geometric mixing rule
Loop time of 0.402433 on 4 procs for 1000 steps with 1080 atoms

unfix totWA
unfix totWB
unfix f6

#%*****************************************************************************%
variable    cntt equal 27+1
variable    cnt  equal 28
next zw
jump SELF here

write_data Fstep4.28.data nocoeff
System init for write_data ...
Generated 0 of 6 mixed pair_coeff terms from geometric mixing rule
